MODEL 1
REMARK VINA RESULT:    -8.385      0.000      0.000
REMARK INTER + INTRA:          -8.579
REMARK INTER:                  -8.875
REMARK INTRA:                   0.297
REMARK UNBOUND:                 0.297
REMARK  Name = ZINC000004471415
REMARK                            x       y       z     vdW  Elec       q    Type
REMARK                         _______ _______ _______ _____ _____    ______ ____
ROOT
ATOM      1  C   LIG    1       32.620 -22.621   3.242  0.00  0.00    +0.360 C 
ATOM      2  N   LIG    1       32.197 -21.465   4.036  0.00  0.00    -0.560 N 
ATOM      3  C   LIG    1       32.745 -21.263   5.242  0.00  0.00    +0.710 C 
ATOM      4  N   LIG    1       32.423 -20.236   6.039  0.00  0.00    -0.660 N 
ATOM      5  H   LIG    1       32.860 -20.150   6.900  0.00  0.00    +0.440 HD
ATOM      6  C   LIG    1       31.504 -19.319   5.672  0.00  0.00    +0.570 C 
ATOM      7  C   LIG    1       30.852 -19.473   4.357  0.00  0.00    -0.290 C 
ATOM      8  C   LIG    1       29.902 -18.572   3.912  0.00  0.00    +0.300 C 
ATOM      9  O   LIG    1       31.221 -18.390   6.405  0.00  0.00    -0.480 OA
ATOM     10  O   LIG    1       33.582 -22.054   5.632  0.00  0.00    -0.520 OA
ATOM     11  C   LIG    1       31.267 -20.627   3.535  0.00  0.00    +0.560 C 
ATOM     12  O   LIG    1       30.775 -20.821   2.439  0.00  0.00    -0.470 OA
ENDROOT
BRANCH   8  13
ATOM     13  C   LIG    1       29.444 -18.628   2.573  0.00  0.00    -0.130 A 
ATOM     14  C   LIG    1       28.299 -19.465   2.205  0.00  0.00    -0.010 A 
ATOM     15  C   LIG    1       27.621 -20.232   3.157  0.00  0.00    +0.010 A 
ATOM     16  C   LIG    1       26.558 -20.998   2.774  0.00  0.00    +0.030 A 
ATOM     17  C   LIG    1       26.139 -21.025   1.447  0.00  0.00    +0.010 A 
ATOM     18  C   LIG    1       26.778 -20.291   0.494  0.00  0.00    +0.040 A 
ATOM     19  C   LIG    1       27.877 -19.490   0.855  0.00  0.00    -0.070 A 
ATOM     20  C   LIG    1       28.561 -18.718  -0.099  0.00  0.00    +0.070 A 
ATOM     21  C   LIG    1       29.624 -17.946   0.262  0.00  0.00    +0.000 A 
ATOM     22  C   LIG    1       30.072 -17.883   1.572  0.00  0.00    +0.120 A 
ENDBRANCH   8  13
TORSDOF 1
ENDMDL
MODEL 2
REMARK VINA RESULT:    -8.293      3.073      4.654
REMARK INTER + INTRA:          -8.481
REMARK INTER:                  -8.662
REMARK INTRA:                   0.180
REMARK UNBOUND:                 0.297
REMARK  Name = ZINC000004471415
REMARK                            x       y       z     vdW  Elec       q    Type
REMARK                         _______ _______ _______ _____ _____    ______ ____
ROOT
ATOM      1  C   LIG    1       33.674 -20.823   0.117  0.00  0.00    +0.360 C 
ATOM      2  N   LIG    1       32.934 -19.631  -0.304  0.00  0.00    -0.560 N 
ATOM      3  C   LIG    1       33.250 -19.038  -1.463  0.00  0.00    +0.710 C 
ATOM      4  N   LIG    1       32.630 -17.946  -1.930  0.00  0.00    -0.660 N 
ATOM      5  H   LIG    1       32.910 -17.569  -2.778  0.00  0.00    +0.440 HD
ATOM      6  C   LIG    1       31.626 -17.359  -1.248  0.00  0.00    +0.570 C 
ATOM      7  C   LIG    1       31.219 -17.951   0.041  0.00  0.00    -0.290 C 
ATOM      8  C   LIG    1       30.196 -17.405   0.797  0.00  0.00    +0.300 C 
ATOM      9  O   LIG    1       31.071 -16.367  -1.682  0.00  0.00    -0.480 OA
ATOM     10  O   LIG    1       34.147 -19.518  -2.128  0.00  0.00    -0.520 OA
ATOM     11  C   LIG    1       31.946 -19.158   0.484  0.00  0.00    +0.560 C 
ATOM     12  O   LIG    1       31.667 -19.703   1.535  0.00  0.00    -0.470 OA
ENDROOT
BRANCH   8  13
ATOM     13  C   LIG    1       29.694 -18.106   1.920  0.00  0.00    -0.130 A 
ATOM     14  C   LIG    1       28.642 -19.114   1.767  0.00  0.00    -0.010 A 
ATOM     15  C   LIG    1       28.100 -19.419   0.515  0.00  0.00    +0.010 A 
ATOM     16  C   LIG    1       27.122 -20.365   0.415  0.00  0.00    +0.030 A 
ATOM     17  C   LIG    1       26.655 -21.032   1.543  0.00  0.00    +0.010 A 
ATOM     18  C   LIG    1       27.160 -20.759   2.779  0.00  0.00    +0.040 A 
ATOM     19  C   LIG    1       28.170 -19.790   2.918  0.00  0.00    -0.070 A 
ATOM     20  C   LIG    1       28.717 -19.481   4.175  0.00  0.00    +0.070 A 
ATOM     21  C   LIG    1       29.695 -18.540   4.297  0.00  0.00    +0.000 A 
ATOM     22  C   LIG    1       30.194 -17.856   3.200  0.00  0.00    +0.120 A 
ENDBRANCH   8  13
TORSDOF 1
ENDMDL
MODEL 3
REMARK VINA RESULT:    -8.075      3.288      5.145
REMARK INTER + INTRA:          -8.250
REMARK INTER:                  -8.348
REMARK INTRA:                   0.098
REMARK UNBOUND:                 0.297
REMARK  Name = ZINC000004471415
REMARK                            x       y       z     vdW  Elec       q    Type
REMARK                         _______ _______ _______ _____ _____    ______ ____
ROOT
ATOM      1  C   LIG    1       33.110 -21.205  -0.894  0.00  0.00    +0.360 C 
ATOM      2  N   LIG    1       32.581 -19.850  -1.069  0.00  0.00    -0.560 N 
ATOM      3  C   LIG    1       33.219 -18.998  -1.883  0.00  0.00    +0.710 C 
ATOM      4  N   LIG    1       32.813 -17.741  -2.106  0.00  0.00    -0.660 N 
ATOM      5  H   LIG    1       33.323 -17.178  -2.708  0.00  0.00    +0.440 HD
ATOM      6  C   LIG    1       31.710 -17.241  -1.513  0.00  0.00    +0.570 C 
ATOM      7  C   LIG    1       30.951 -18.118  -0.600  0.00  0.00    -0.290 C 
ATOM      8  C   LIG    1       29.809 -17.675   0.044  0.00  0.00    +0.300 C 
ATOM      9  O   LIG    1       31.350 -16.098  -1.724  0.00  0.00    -0.480 OA
ATOM     10  O   LIG    1       34.222 -19.387  -2.450  0.00  0.00    -0.520 OA
ATOM     11  C   LIG    1       31.460 -19.491  -0.412  0.00  0.00    +0.560 C 
ATOM     12  O   LIG    1       30.888 -20.272   0.325  0.00  0.00    -0.470 OA
ENDROOT
BRANCH   8  13
ATOM     13  C   LIG    1       28.992 -18.593   0.749  0.00  0.00    -0.130 A 
ATOM     14  C   LIG    1       29.098 -18.727   2.205  0.00  0.00    -0.010 A 
ATOM     15  C   LIG    1       30.002 -17.959   2.944  0.00  0.00    +0.010 A 
ATOM     16  C   LIG    1       30.069 -18.113   4.298  0.00  0.00    +0.030 A 
ATOM     17  C   LIG    1       29.249 -19.025   4.954  0.00  0.00    +0.010 A 
ATOM     18  C   LIG    1       28.357 -19.791   4.264  0.00  0.00    +0.040 A 
ATOM     19  C   LIG    1       28.262 -19.656   2.867  0.00  0.00    -0.070 A 
ATOM     20  C   LIG    1       27.355 -20.427   2.121  0.00  0.00    +0.070 A 
ATOM     21  C   LIG    1       27.271 -20.288   0.767  0.00  0.00    +0.000 A 
ATOM     22  C   LIG    1       28.064 -19.388   0.074  0.00  0.00    +0.120 A 
ENDBRANCH   8  13
TORSDOF 1
ENDMDL
MODEL 4
REMARK VINA RESULT:    -6.806     14.169     16.109
REMARK INTER + INTRA:          -6.907
REMARK INTER:                  -7.150
REMARK INTRA:                   0.242
REMARK UNBOUND:                 0.297
REMARK  Name = ZINC000004471415
REMARK                            x       y       z     vdW  Elec       q    Type
REMARK                         _______ _______ _______ _____ _____    ______ ____
ROOT
ATOM      1  C   LIG    1       22.633  -3.161  -1.907  0.00  0.00    +0.360 C 
ATOM      2  N   LIG    1       22.939  -3.889  -0.673  0.00  0.00    -0.560 N 
ATOM      3  C   LIG    1       22.050  -3.881   0.330  0.00  0.00    +0.710 C 
ATOM      4  N   LIG    1       22.241  -4.515   1.494  0.00  0.00    -0.660 N 
ATOM      5  H   LIG    1       21.555  -4.467   2.178  0.00  0.00    +0.440 HD
ATOM      6  C   LIG    1       23.366  -5.219   1.738  0.00  0.00    +0.570 C 
ATOM      7  C   LIG    1       24.396  -5.275   0.682  0.00  0.00    -0.290 C 
ATOM      8  C   LIG    1       25.574  -5.978   0.859  0.00  0.00    +0.300 C 
ATOM      9  O   LIG    1       23.528  -5.791   2.799  0.00  0.00    -0.480 OA
ATOM     10  O   LIG    1       21.014  -3.264   0.174  0.00  0.00    -0.520 OA
ATOM     11  C   LIG    1       24.107  -4.555  -0.575  0.00  0.00    +0.560 C 
ATOM     12  O   LIG    1       24.907  -4.556  -1.491  0.00  0.00    -0.470 OA
ENDROOT
BRANCH   8  13
ATOM     13  C   LIG    1       26.448  -6.183  -0.237  0.00  0.00    -0.130 A 
ATOM     14  C   LIG    1       26.338  -7.384  -1.070  0.00  0.00    -0.010 A 
ATOM     15  C   LIG    1       25.373  -8.363  -0.815  0.00  0.00    +0.010 A 
ATOM     16  C   LIG    1       25.303  -9.466  -1.615  0.00  0.00    +0.030 A 
ATOM     17  C   LIG    1       26.180  -9.630  -2.682  0.00  0.00    +0.010 A 
ATOM     18  C   LIG    1       27.133  -8.696  -2.958  0.00  0.00    +0.040 A 
ATOM     19  C   LIG    1       27.232  -7.547  -2.155  0.00  0.00    -0.070 A 
ATOM     20  C   LIG    1       28.200  -6.561  -2.408  0.00  0.00    +0.070 A 
ATOM     21  C   LIG    1       28.287  -5.451  -1.622  0.00  0.00    +0.000 A 
ATOM     22  C   LIG    1       27.431  -5.243  -0.552  0.00  0.00    +0.120 A 
ENDBRANCH   8  13
TORSDOF 1
ENDMDL
MODEL 5
REMARK VINA RESULT:    -6.667     13.937     15.948
REMARK INTER + INTRA:          -6.761
REMARK INTER:                  -7.000
REMARK INTRA:                   0.240
REMARK UNBOUND:                 0.297
REMARK  Name = ZINC000004471415
REMARK                            x       y       z     vdW  Elec       q    Type
REMARK                         _______ _______ _______ _____ _____    ______ ____
ROOT
ATOM      1  C   LIG    1       23.441  -5.309   2.619  0.00  0.00    +0.360 C 
ATOM      2  N   LIG    1       23.504  -4.868   1.223  0.00  0.00    -0.560 N 
ATOM      3  C   LIG    1       22.552  -4.052   0.750  0.00  0.00    +0.710 C 
ATOM      4  N   LIG    1       22.524  -3.597  -0.509  0.00  0.00    -0.660 N 
ATOM      5  H   LIG    1       21.804  -3.009  -0.785  0.00  0.00    +0.440 HD
ATOM      6  C   LIG    1       23.475  -3.938  -1.403  0.00  0.00    +0.570 C 
ATOM      7  C   LIG    1       24.560  -4.835  -0.960  0.00  0.00    -0.290 C 
ATOM      8  C   LIG    1       25.570  -5.227  -1.820  0.00  0.00    +0.300 C 
ATOM      9  O   LIG    1       23.439  -3.517  -2.545  0.00  0.00    -0.480 OA
ATOM     10  O   LIG    1       21.664  -3.707   1.506  0.00  0.00    -0.520 OA
ATOM     11  C   LIG    1       24.522  -5.288   0.445  0.00  0.00    +0.560 C 
ATOM     12  O   LIG    1       25.382  -6.029   0.884  0.00  0.00    -0.470 OA
ENDROOT
BRANCH   8  13
ATOM     13  C   LIG    1       26.699  -5.918  -1.317  0.00  0.00    -0.130 A 
ATOM     14  C   LIG    1       26.715  -7.382  -1.249  0.00  0.00    -0.010 A 
ATOM     15  C   LIG    1       25.623  -8.143  -1.675  0.00  0.00    +0.010 A 
ATOM     16  C   LIG    1       25.678  -9.505  -1.596  0.00  0.00    +0.030 A 
ATOM     17  C   LIG    1       26.807 -10.146  -1.096  0.00  0.00    +0.010 A 
ATOM     18  C   LIG    1       27.888  -9.434  -0.671  0.00  0.00    +0.040 A 
ATOM     19  C   LIG    1       27.865  -8.030  -0.739  0.00  0.00    -0.070 A 
ATOM     20  C   LIG    1       28.961  -7.261  -0.312  0.00  0.00    +0.070 A 
ATOM     21  C   LIG    1       28.928  -5.900  -0.384  0.00  0.00    +0.000 A 
ATOM     22  C   LIG    1       27.827  -5.220  -0.879  0.00  0.00    +0.120 A 
ENDBRANCH   8  13
TORSDOF 1
ENDMDL
MODEL 6
REMARK VINA RESULT:    -6.244      1.586      2.013
REMARK INTER + INTRA:          -6.313
REMARK INTER:                  -6.421
REMARK INTRA:                   0.108
REMARK UNBOUND:                 0.297
REMARK  Name = ZINC000004471415
REMARK                            x       y       z     vdW  Elec       q    Type
REMARK                         _______ _______ _______ _____ _____    ______ ____
ROOT
ATOM      1  C   LIG    1       33.015 -24.518   2.373  0.00  0.00    +0.360 C 
ATOM      2  N   LIG    1       32.917 -23.466   3.388  0.00  0.00    -0.560 N 
ATOM      3  C   LIG    1       33.529 -23.635   4.568  0.00  0.00    +0.710 C 
ATOM      4  N   LIG    1       33.497 -22.731   5.556  0.00  0.00    -0.660 N 
ATOM      5  H   LIG    1       33.963 -22.919   6.385  0.00  0.00    +0.440 HD
ATOM      6  C   LIG    1       32.830 -21.566   5.424  0.00  0.00    +0.570 C 
ATOM      7  C   LIG    1       32.127 -21.304   4.153  0.00  0.00    -0.290 C 
ATOM      8  C   LIG    1       31.424 -20.132   3.944  0.00  0.00    +0.300 C 
ATOM      9  O   LIG    1       32.808 -20.752   6.329  0.00  0.00    -0.480 OA
ATOM     10  O   LIG    1       34.148 -24.665   4.751  0.00  0.00    -0.520 OA
ATOM     11  C   LIG    1       32.216 -22.347   3.111  0.00  0.00    +0.560 C 
ATOM     12  O   LIG    1       31.664 -22.204   2.037  0.00  0.00    -0.470 OA
ENDROOT
BRANCH   8  13
ATOM     13  C   LIG    1       30.934 -19.820   2.652  0.00  0.00    -0.130 A 
ATOM     14  C   LIG    1       29.531 -20.060   2.304  0.00  0.00    -0.010 A 
ATOM     15  C   LIG    1       28.632 -20.601   3.228  0.00  0.00    +0.010 A 
ATOM     16  C   LIG    1       27.333 -20.809   2.864  0.00  0.00    +0.030 A 
ATOM     17  C   LIG    1       26.890 -20.489   1.584  0.00  0.00    +0.010 A 
ATOM     18  C   LIG    1       27.740 -19.961   0.659  0.00  0.00    +0.040 A 
ATOM     19  C   LIG    1       29.085 -19.734   1.001  0.00  0.00    -0.070 A 
ATOM     20  C   LIG    1       29.991 -19.191   0.075  0.00  0.00    +0.070 A 
ATOM     21  C   LIG    1       31.292 -18.974   0.418  0.00  0.00    +0.000 A 
ATOM     22  C   LIG    1       31.775 -19.272   1.682  0.00  0.00    +0.120 A 
ENDBRANCH   8  13
TORSDOF 1
ENDMDL
MODEL 7
REMARK VINA RESULT:    -6.030      4.013      5.552
REMARK INTER + INTRA:          -6.086
REMARK INTER:                  -6.344
REMARK INTRA:                   0.258
REMARK UNBOUND:                 0.297
REMARK  Name = ZINC000004471415
REMARK                            x       y       z     vdW  Elec       q    Type
REMARK                         _______ _______ _______ _____ _____    ______ ____
ROOT
ATOM      1  C   LIG    1       33.736 -19.787  -2.456  0.00  0.00    +0.360 C 
ATOM      2  N   LIG    1       33.449 -18.493  -1.832  0.00  0.00    -0.560 N 
ATOM      3  C   LIG    1       33.718 -17.367  -2.506  0.00  0.00    +0.710 C 
ATOM      4  N   LIG    1       33.491 -16.139  -2.019  0.00  0.00    -0.660 N 
ATOM      5  H   LIG    1       33.710 -15.367  -2.562  0.00  0.00    +0.440 HD
ATOM      6  C   LIG    1       32.964 -15.954  -0.791  0.00  0.00    +0.570 C 
ATOM      7  C   LIG    1       32.641 -17.147   0.016  0.00  0.00    -0.290 C 
ATOM      8  C   LIG    1       32.098 -17.036   1.283  0.00  0.00    +0.300 C 
ATOM      9  O   LIG    1       32.762 -14.835  -0.360  0.00  0.00    -0.480 OA
ATOM     10  O   LIG    1       34.195 -17.464  -3.620  0.00  0.00    -0.520 OA
ATOM     11  C   LIG    1       32.915 -18.463  -0.594  0.00  0.00    +0.560 C 
ATOM     12  O   LIG    1       32.675 -19.492   0.009  0.00  0.00    -0.470 OA
ENDROOT
BRANCH   8  13
ATOM     13  C   LIG    1       31.611 -18.188   1.949  0.00  0.00    -0.130 A 
ATOM     14  C   LIG    1       30.296 -18.744   1.622  0.00  0.00    -0.010 A 
ATOM     15  C   LIG    1       29.479 -18.162   0.648  0.00  0.00    +0.010 A 
ATOM     16  C   LIG    1       28.260 -18.712   0.373  0.00  0.00    +0.030 A 
ATOM     17  C   LIG    1       27.819 -19.845   1.050  0.00  0.00    +0.010 A 
ATOM     18  C   LIG    1       28.589 -20.436   2.005  0.00  0.00    +0.040 A 
ATOM     19  C   LIG    1       29.851 -19.897   2.313  0.00  0.00    -0.070 A 
ATOM     20  C   LIG    1       30.674 -20.478   3.291  0.00  0.00    +0.070 A 
ATOM     21  C   LIG    1       31.895 -19.947   3.580  0.00  0.00    +0.000 A 
ATOM     22  C   LIG    1       32.378 -18.824   2.929  0.00  0.00    +0.120 A 
ENDBRANCH   8  13
TORSDOF 1
ENDMDL
MODEL 8
REMARK VINA RESULT:    -6.002      3.530      5.306
REMARK INTER + INTRA:          -6.056
REMARK INTER:                  -6.179
REMARK INTRA:                   0.123
REMARK UNBOUND:                 0.297
REMARK  Name = ZINC000004471415
REMARK                            x       y       z     vdW  Elec       q    Type
REMARK                         _______ _______ _______ _____ _____    ______ ____
ROOT
ATOM      1  C   LIG    1       31.562 -16.513  -1.735  0.00  0.00    +0.360 C 
ATOM      2  N   LIG    1       32.140 -17.830  -1.457  0.00  0.00    -0.560 N 
ATOM      3  C   LIG    1       33.220 -18.229  -2.144  0.00  0.00    +0.710 C 
ATOM      4  N   LIG    1       33.818 -19.414  -1.961  0.00  0.00    -0.660 N 
ATOM      5  H   LIG    1       34.596 -19.638  -2.493  0.00  0.00    +0.440 HD
ATOM      6  C   LIG    1       33.361 -20.302  -1.053  0.00  0.00    +0.570 C 
ATOM      7  C   LIG    1       32.174 -19.937  -0.257  0.00  0.00    -0.290 C 
ATOM      8  C   LIG    1       31.649 -20.795   0.692  0.00  0.00    +0.300 C 
ATOM      9  O   LIG    1       33.913 -21.374  -0.896  0.00  0.00    -0.480 OA
ATOM     10  O   LIG    1       33.681 -17.475  -2.978  0.00  0.00    -0.520 OA
ATOM     11  C   LIG    1       31.576 -18.611  -0.514  0.00  0.00    +0.560 C 
ATOM     12  O   LIG    1       30.596 -18.239   0.103  0.00  0.00    -0.470 OA
ENDROOT
BRANCH   8  13
ATOM     13  C   LIG    1       30.640 -20.341   1.578  0.00  0.00    -0.130 A 
ATOM     14  C   LIG    1       29.223 -20.548   1.270  0.00  0.00    -0.010 A 
ATOM     15  C   LIG    1       28.817 -21.197   0.100  0.00  0.00    +0.010 A 
ATOM     16  C   LIG    1       27.487 -21.371  -0.149  0.00  0.00    +0.030 A 
ATOM     17  C   LIG    1       26.527 -20.910   0.747  0.00  0.00    +0.010 A 
ATOM     18  C   LIG    1       26.887 -20.273   1.896  0.00  0.00    +0.040 A 
ATOM     19  C   LIG    1       28.250 -20.078   2.184  0.00  0.00    -0.070 A 
ATOM     20  C   LIG    1       28.661 -19.426   3.358  0.00  0.00    +0.070 A 
ATOM     21  C   LIG    1       29.985 -19.243   3.627  0.00  0.00    +0.000 A 
ATOM     22  C   LIG    1       30.975 -19.690   2.767  0.00  0.00    +0.120 A 
ENDBRANCH   8  13
TORSDOF 1
ENDMDL
MODEL 9
REMARK VINA RESULT:    -5.876      3.594      5.747
REMARK INTER + INTRA:          -5.923
REMARK INTER:                  -6.145
REMARK INTRA:                   0.221
REMARK UNBOUND:                 0.297
REMARK  Name = ZINC000004471415
REMARK                            x       y       z     vdW  Elec       q    Type
REMARK                         _______ _______ _______ _____ _____    ______ ____
ROOT
ATOM      1  C   LIG    1       31.849 -16.592  -1.965  0.00  0.00    +0.360 C 
ATOM      2  N   LIG    1       32.392 -17.899  -1.585  0.00  0.00    -0.560 N 
ATOM      3  C   LIG    1       33.565 -18.295  -2.097  0.00  0.00    +0.710 C 
ATOM      4  N   LIG    1       34.140 -19.470  -1.809  0.00  0.00    -0.660 N 
ATOM      5  H   LIG    1       34.992 -19.693  -2.216  0.00  0.00    +0.440 HD
ATOM      6  C   LIG    1       33.562 -20.351  -0.967  0.00  0.00    +0.570 C 
ATOM      7  C   LIG    1       32.266 -19.989  -0.362  0.00  0.00    -0.290 C 
ATOM      8  C   LIG    1       31.613 -20.841   0.511  0.00  0.00    +0.300 C 
ATOM      9  O   LIG    1       34.095 -21.415  -0.714  0.00  0.00    -0.480 OA
ATOM     10  O   LIG    1       34.139 -17.546  -2.864  0.00  0.00    -0.520 OA
ATOM     11  C   LIG    1       31.701 -18.674  -0.724  0.00  0.00    +0.560 C 
ATOM     12  O   LIG    1       30.636 -18.305  -0.266  0.00  0.00    -0.470 OA
ENDROOT
BRANCH   8  13
ATOM     13  C   LIG    1       30.480 -20.387   1.229  0.00  0.00    -0.130 A 
ATOM     14  C   LIG    1       30.627 -19.768   2.550  0.00  0.00    -0.010 A 
ATOM     15  C   LIG    1       31.882 -19.604   3.143  0.00  0.00    +0.010 A 
ATOM     16  C   LIG    1       31.976 -19.022   4.374  0.00  0.00    +0.030 A 
ATOM     17  C   LIG    1       30.838 -18.589   5.047  0.00  0.00    +0.010 A 
ATOM     18  C   LIG    1       29.600 -18.734   4.498  0.00  0.00    +0.040 A 
ATOM     19  C   LIG    1       29.467 -19.329   3.231  0.00  0.00    -0.070 A 
ATOM     20  C   LIG    1       28.207 -19.495   2.632  0.00  0.00    +0.070 A 
ATOM     21  C   LIG    1       28.091 -20.073   1.403  0.00  0.00    +0.000 A 
ATOM     22  C   LIG    1       29.197 -20.514   0.694  0.00  0.00    +0.120 A 
ENDBRANCH   8  13
TORSDOF 1
ENDMDL
