MODEL 1
REMARK VINA RESULT:    -8.500      0.000      0.000
REMARK INTER + INTRA:          -8.500
REMARK INTER:                  -8.500
REMARK INTRA:                   0.000
REMARK UNBOUND:                 0.000
REMARK  Name = ZINC000000134139
REMARK                            x       y       z     vdW  Elec       q    Type
REMARK                         _______ _______ _______ _____ _____    ______ ____
ROOT
ATOM      1  C   LIG    1       26.740 -20.987   2.566  0.00  0.00    +0.060 A 
ATOM      2  C   LIG    1       26.573 -20.611   1.241  0.00  0.00    +0.020 A 
ATOM      3  C   LIG    1       27.478 -19.769   0.635  0.00  0.00    +0.100 A 
ATOM      4  C   LIG    1       28.574 -19.289   1.356  0.00  0.00    -0.070 A 
ATOM      5  C   LIG    1       28.745 -19.670   2.699  0.00  0.00    -0.010 A 
ATOM      6  C   LIG    1       29.895 -19.176   3.481  0.00  0.00    -0.010 A 
ATOM      7  C   LIG    1       30.048 -19.563   4.813  0.00  0.00    +0.030 A 
ATOM      8  C   LIG    1       31.121 -19.102   5.546  0.00  0.00    +0.060 A 
ATOM      9  C   LIG    1       32.053 -18.252   4.970  0.00  0.00    +0.030 A 
ATOM     10  C   LIG    1       31.919 -17.858   3.656  0.00  0.00    +0.080 A 
ATOM     11  C   LIG    1       30.841 -18.314   2.899  0.00  0.00    -0.050 A 
ATOM     12  C   LIG    1       30.689 -17.899   1.493  0.00  0.00    +0.170 A 
ATOM     13  N   LIG    1       31.561 -17.092   0.922  0.00  0.00    -0.160 NA
ATOM     14  N   LIG    1       31.366 -16.732  -0.415  0.00  0.00    -0.240 N 
ATOM     15  N   LIG    1       32.071 -15.920  -1.312  0.00  0.00    -0.030 NA
ATOM     16  N   LIG    1       31.428 -15.946  -2.430  0.00  0.00    +0.000 NA
ATOM     17  N   LIG    1       30.384 -16.692  -2.342  0.00  0.00    -0.270 NA
ATOM     18  C   LIG    1       30.289 -17.207  -1.121  0.00  0.00    +0.370 A 
ATOM     19  N   LIG    1       29.405 -18.023  -0.547  0.00  0.00    -0.390 NA
ATOM     20  C   LIG    1       29.547 -18.389   0.715  0.00  0.00    +0.260 A 
ATOM     21  C   LIG    1       27.815 -20.524   3.293  0.00  0.00    +0.030 A 
ENDROOT
TORSDOF 0
ENDMDL
MODEL 2
REMARK VINA RESULT:    -8.490      0.888      3.841
REMARK INTER + INTRA:          -8.490
REMARK INTER:                  -8.490
REMARK INTRA:                   0.000
REMARK UNBOUND:                 0.000
REMARK  Name = ZINC000000134139
REMARK                            x       y       z     vdW  Elec       q    Type
REMARK                         _______ _______ _______ _____ _____    ______ ____
ROOT
ATOM      1  C   LIG    1       30.966 -19.135   5.801  0.00  0.00    +0.060 A 
ATOM      2  C   LIG    1       32.008 -18.292   5.446  0.00  0.00    +0.020 A 
ATOM      3  C   LIG    1       32.101 -17.797   4.164  0.00  0.00    +0.100 A 
ATOM      4  C   LIG    1       31.140 -18.145   3.213  0.00  0.00    -0.070 A 
ATOM      5  C   LIG    1       30.081 -19.000   3.571  0.00  0.00    -0.010 A 
ATOM      6  C   LIG    1       29.054 -19.381   2.583  0.00  0.00    -0.010 A 
ATOM      7  C   LIG    1       28.012 -20.231   2.956  0.00  0.00    +0.030 A 
ATOM      8  C   LIG    1       27.052 -20.590   2.034  0.00  0.00    +0.060 A 
ATOM      9  C   LIG    1       27.111 -20.113   0.734  0.00  0.00    +0.030 A 
ATOM     10  C   LIG    1       28.133 -19.272   0.346  0.00  0.00    +0.080 A 
ATOM     11  C   LIG    1       29.113 -18.898   1.264  0.00  0.00    -0.050 A 
ATOM     12  C   LIG    1       30.209 -18.000   0.860  0.00  0.00    +0.170 A 
ATOM     13  N   LIG    1       30.290 -17.532  -0.370  0.00  0.00    -0.160 NA
ATOM     14  N   LIG    1       31.351 -16.683  -0.698  0.00  0.00    -0.240 N 
ATOM     15  N   LIG    1       31.736 -16.021  -1.870  0.00  0.00    -0.030 NA
ATOM     16  N   LIG    1       32.812 -15.365  -1.596  0.00  0.00    +0.000 NA
ATOM     17  N   LIG    1       33.156 -15.537  -0.369  0.00  0.00    -0.270 NA
ATOM     18  C   LIG    1       32.293 -16.343   0.241  0.00  0.00    +0.370 A 
ATOM     19  N   LIG    1       32.216 -16.813   1.485  0.00  0.00    -0.390 NA
ATOM     20  C   LIG    1       31.231 -17.620   1.840  0.00  0.00    +0.260 A 
ATOM     21  C   LIG    1       30.007 -19.489   4.876  0.00  0.00    +0.030 A 
ENDROOT
TORSDOF 0
ENDMDL
MODEL 3
REMARK VINA RESULT:    -8.339      2.817      5.684
REMARK INTER + INTRA:          -8.339
REMARK INTER:                  -8.339
REMARK INTRA:                   0.000
REMARK UNBOUND:                 0.000
REMARK  Name = ZINC000000134139
REMARK                            x       y       z     vdW  Elec       q    Type
REMARK                         _______ _______ _______ _____ _____    ______ ____
ROOT
ATOM      1  C   LIG    1       32.149 -18.197   4.976  0.00  0.00    +0.060 A 
ATOM      2  C   LIG    1       31.202 -18.983   5.615  0.00  0.00    +0.020 A 
ATOM      3  C   LIG    1       30.104 -19.451   4.928  0.00  0.00    +0.100 A 
ATOM      4  C   LIG    1       29.941 -19.134   3.578  0.00  0.00    -0.070 A 
ATOM      5  C   LIG    1       30.900 -18.337   2.928  0.00  0.00    -0.010 A 
ATOM      6  C   LIG    1       30.749 -17.989   1.502  0.00  0.00    -0.010 A 
ATOM      7  C   LIG    1       31.711 -17.196   0.874  0.00  0.00    +0.030 A 
ATOM      8  C   LIG    1       31.571 -16.868  -0.458  0.00  0.00    +0.060 A 
ATOM      9  C   LIG    1       30.479 -17.321  -1.183  0.00  0.00    +0.030 A 
ATOM     10  C   LIG    1       29.519 -18.105  -0.580  0.00  0.00    +0.080 A 
ATOM     11  C   LIG    1       29.643 -18.446   0.766  0.00  0.00    -0.050 A 
ATOM     12  C   LIG    1       28.622 -19.284   1.419  0.00  0.00    +0.170 A 
ATOM     13  N   LIG    1       27.574 -19.727   0.753  0.00  0.00    -0.160 NA
ATOM     14  N   LIG    1       26.637 -20.519   1.424  0.00  0.00    -0.240 N 
ATOM     15  N   LIG    1       25.443 -21.142   1.040  0.00  0.00    -0.030 NA
ATOM     16  N   LIG    1       24.985 -21.751   2.081  0.00  0.00    +0.000 NA
ATOM     17  N   LIG    1       25.762 -21.583   3.091  0.00  0.00    -0.270 NA
ATOM     18  C   LIG    1       26.803 -20.829   2.751  0.00  0.00    +0.370 A 
ATOM     19  N   LIG    1       27.860 -20.384   3.428  0.00  0.00    -0.390 NA
ATOM     20  C   LIG    1       28.770 -19.631   2.835  0.00  0.00    +0.260 A 
ATOM     21  C   LIG    1       32.005 -17.873   3.644  0.00  0.00    +0.030 A 
ENDROOT
TORSDOF 0
ENDMDL
MODEL 4
REMARK VINA RESULT:    -7.770      1.186      1.280
REMARK INTER + INTRA:          -7.770
REMARK INTER:                  -7.770
REMARK INTRA:                   0.000
REMARK UNBOUND:                 0.000
REMARK  Name = ZINC000000134139
REMARK                            x       y       z     vdW  Elec       q    Type
REMARK                         _______ _______ _______ _____ _____    ______ ____
ROOT
ATOM      1  C   LIG    1       26.661 -20.659   1.854  0.00  0.00    +0.060 A 
ATOM      2  C   LIG    1       27.006 -20.474   0.523  0.00  0.00    +0.020 A 
ATOM      3  C   LIG    1       28.194 -19.863   0.189  0.00  0.00    +0.100 A 
ATOM      4  C   LIG    1       29.060 -19.428   1.194  0.00  0.00    -0.070 A 
ATOM      5  C   LIG    1       28.712 -19.615   2.544  0.00  0.00    -0.010 A 
ATOM      6  C   LIG    1       29.611 -19.163   3.623  0.00  0.00    -0.010 A 
ATOM      7  C   LIG    1       29.248 -19.357   4.957  0.00  0.00    +0.030 A 
ATOM      8  C   LIG    1       30.086 -18.934   5.966  0.00  0.00    +0.060 A 
ATOM      9  C   LIG    1       31.290 -18.315   5.669  0.00  0.00    +0.030 A 
ATOM     10  C   LIG    1       31.666 -18.115   4.358  0.00  0.00    +0.080 A 
ATOM     11  C   LIG    1       30.832 -18.535   3.323  0.00  0.00    -0.050 A 
ATOM     12  C   LIG    1       31.225 -18.326   1.918  0.00  0.00    +0.170 A 
ATOM     13  N   LIG    1       32.365 -17.741   1.608  0.00  0.00    -0.160 NA
ATOM     14  N   LIG    1       32.686 -17.569   0.258  0.00  0.00    -0.240 N 
ATOM     15  N   LIG    1       33.778 -17.006  -0.414  0.00  0.00    -0.030 NA
ATOM     16  N   LIG    1       33.542 -17.120  -1.677  0.00  0.00    +0.000 NA
ATOM     17  N   LIG    1       32.412 -17.697  -1.884  0.00  0.00    -0.270 NA
ATOM     18  C   LIG    1       31.832 -18.000  -0.727  0.00  0.00    +0.370 A 
ATOM     19  N   LIG    1       30.680 -18.593  -0.418  0.00  0.00    -0.390 NA
ATOM     20  C   LIG    1       30.334 -18.775   0.845  0.00  0.00    +0.260 A 
ATOM     21  C   LIG    1       27.503 -20.236   2.860  0.00  0.00    +0.030 A 
ENDROOT
TORSDOF 0
ENDMDL
MODEL 5
REMARK VINA RESULT:    -7.207     13.451     15.294
REMARK INTER + INTRA:          -7.207
REMARK INTER:                  -7.207
REMARK INTRA:                   0.000
REMARK UNBOUND:                 0.000
REMARK  Name = ZINC000000134139
REMARK                            x       y       z     vdW  Elec       q    Type
REMARK                         _______ _______ _______ _____ _____    ______ ____
ROOT
ATOM      1  C   LIG    1       27.900  -8.053   0.130  0.00  0.00    +0.060 A 
ATOM      2  C   LIG    1       27.048  -7.904   1.214  0.00  0.00    +0.020 A 
ATOM      3  C   LIG    1       25.997  -7.017   1.159  0.00  0.00    +0.100 A 
ATOM      4  C   LIG    1       25.784  -6.260   0.005  0.00  0.00    -0.070 A 
ATOM      5  C   LIG    1       26.646  -6.410  -1.096  0.00  0.00    -0.010 A 
ATOM      6  C   LIG    1       26.441  -5.621  -2.326  0.00  0.00    -0.010 A 
ATOM      7  C   LIG    1       27.308  -5.782  -3.408  0.00  0.00    +0.030 A 
ATOM      8  C   LIG    1       27.118  -5.046  -4.558  0.00  0.00    +0.060 A 
ATOM      9  C   LIG    1       26.071  -4.142  -4.650  0.00  0.00    +0.030 A 
ATOM     10  C   LIG    1       25.205  -3.968  -3.592  0.00  0.00    +0.080 A 
ATOM     11  C   LIG    1       25.380  -4.705  -2.421  0.00  0.00    -0.050 A 
ATOM     12  C   LIG    1       24.459  -4.527  -1.285  0.00  0.00    +0.170 A 
ATOM     13  N   LIG    1       23.455  -3.674  -1.346  0.00  0.00    -0.160 NA
ATOM     14  N   LIG    1       22.613  -3.547  -0.238  0.00  0.00    -0.240 N 
ATOM     15  N   LIG    1       21.485  -2.764   0.037  0.00  0.00    -0.030 NA
ATOM     16  N   LIG    1       21.104  -3.059   1.234  0.00  0.00    +0.000 NA
ATOM     17  N   LIG    1       21.871  -3.950   1.754  0.00  0.00    -0.270 NA
ATOM     18  C   LIG    1       22.825  -4.294   0.894  0.00  0.00    +0.370 A 
ATOM     19  N   LIG    1       23.838  -5.157   0.961  0.00  0.00    -0.390 NA
ATOM     20  C   LIG    1       24.661  -5.309  -0.062  0.00  0.00    +0.260 A 
ATOM     21  C   LIG    1       27.705  -7.316  -1.018  0.00  0.00    +0.030 A 
ENDROOT
TORSDOF 0
ENDMDL
MODEL 6
REMARK VINA RESULT:    -7.193     13.234     14.883
REMARK INTER + INTRA:          -7.193
REMARK INTER:                  -7.193
REMARK INTRA:                   0.000
REMARK UNBOUND:                 0.000
REMARK  Name = ZINC000000134139
REMARK                            x       y       z     vdW  Elec       q    Type
REMARK                         _______ _______ _______ _____ _____    ______ ____
ROOT
ATOM      1  C   LIG    1       27.455  -5.188  -4.355  0.00  0.00    +0.060 A 
ATOM      2  C   LIG    1       26.378  -4.325  -4.489  0.00  0.00    +0.020 A 
ATOM      3  C   LIG    1       25.475  -4.169  -3.461  0.00  0.00    +0.100 A 
ATOM      4  C   LIG    1       25.644  -4.883  -2.272  0.00  0.00    -0.070 A 
ATOM      5  C   LIG    1       26.736  -5.758  -2.134  0.00  0.00    -0.010 A 
ATOM      6  C   LIG    1       26.935  -6.523  -0.888  0.00  0.00    -0.010 A 
ATOM      7  C   LIG    1       28.025  -7.388  -0.769  0.00  0.00    +0.030 A 
ATOM      8  C   LIG    1       28.211  -8.104   0.394  0.00  0.00    +0.060 A 
ATOM      9  C   LIG    1       27.325  -7.974   1.451  0.00  0.00    +0.030 A 
ATOM     10  C   LIG    1       26.243  -7.125   1.353  0.00  0.00    +0.080 A 
ATOM     11  C   LIG    1       26.037  -6.392   0.185  0.00  0.00    -0.050 A 
ATOM     12  C   LIG    1       24.884  -5.482   0.070  0.00  0.00    +0.170 A 
ATOM     13  N   LIG    1       24.025  -5.339   1.060  0.00  0.00    -0.160 NA
ATOM     14  N   LIG    1       22.950  -4.461   0.896  0.00  0.00    -0.240 N 
ATOM     15  N   LIG    1       21.880  -4.075   1.713  0.00  0.00    -0.030 NA
ATOM     16  N   LIG    1       21.181  -3.224   1.042  0.00  0.00    +0.000 NA
ATOM     17  N   LIG    1       21.692  -3.024  -0.121  0.00  0.00    -0.270 NA
ATOM     18  C   LIG    1       22.789  -3.761  -0.274  0.00  0.00    +0.370 A 
ATOM     19  N   LIG    1       23.654  -3.901  -1.277  0.00  0.00    -0.390 NA
ATOM     20  C   LIG    1       24.684  -4.721  -1.167  0.00  0.00    +0.260 A 
ATOM     21  C   LIG    1       27.639  -5.901  -3.189  0.00  0.00    +0.030 A 
ENDROOT
TORSDOF 0
ENDMDL
MODEL 7
REMARK VINA RESULT:    -7.171      2.956      3.336
REMARK INTER + INTRA:          -7.171
REMARK INTER:                  -7.171
REMARK INTRA:                   0.000
REMARK UNBOUND:                 0.000
REMARK  Name = ZINC000000134139
REMARK                            x       y       z     vdW  Elec       q    Type
REMARK                         _______ _______ _______ _____ _____    ______ ____
ROOT
ATOM      1  C   LIG    1       26.711 -20.651   1.178  0.00  0.00    +0.060 A 
ATOM      2  C   LIG    1       27.351 -21.153   0.055  0.00  0.00    +0.020 A 
ATOM      3  C   LIG    1       28.726 -21.179  -0.012  0.00  0.00    +0.100 A 
ATOM      4  C   LIG    1       29.484 -20.698   1.057  0.00  0.00    -0.070 A 
ATOM      5  C   LIG    1       28.837 -20.188   2.197  0.00  0.00    -0.010 A 
ATOM      6  C   LIG    1       29.617 -19.674   3.339  0.00  0.00    -0.010 A 
ATOM      7  C   LIG    1       28.957 -19.171   4.462  0.00  0.00    +0.030 A 
ATOM      8  C   LIG    1       29.684 -18.689   5.529  0.00  0.00    +0.060 A 
ATOM      9  C   LIG    1       31.070 -18.699   5.499  0.00  0.00    +0.030 A 
ATOM     10  C   LIG    1       31.740 -19.191   4.399  0.00  0.00    +0.080 A 
ATOM     11  C   LIG    1       31.022 -19.683   3.310  0.00  0.00    -0.050 A 
ATOM     12  C   LIG    1       31.729 -20.212   2.130  0.00  0.00    +0.170 A 
ATOM     13  N   LIG    1       33.045 -20.232   2.075  0.00  0.00    -0.160 NA
ATOM     14  N   LIG    1       33.662 -20.745   0.930  0.00  0.00    -0.240 N 
ATOM     15  N   LIG    1       34.997 -20.917   0.542  0.00  0.00    -0.030 NA
ATOM     16  N   LIG    1       34.983 -21.446  -0.634  0.00  0.00    +0.000 NA
ATOM     17  N   LIG    1       33.778 -21.632  -1.040  0.00  0.00    -0.270 NA
ATOM     18  C   LIG    1       32.913 -21.219  -0.118  0.00  0.00    +0.370 A 
ATOM     19  N   LIG    1       31.582 -21.201  -0.067  0.00  0.00    -0.390 NA
ATOM     20  C   LIG    1       30.955 -20.723   0.994  0.00  0.00    +0.260 A 
ATOM     21  C   LIG    1       27.442 -20.172   2.243  0.00  0.00    +0.030 A 
ENDROOT
TORSDOF 0
ENDMDL
MODEL 8
REMARK VINA RESULT:    -6.765     15.652     17.172
REMARK INTER + INTRA:          -6.765
REMARK INTER:                  -6.765
REMARK INTRA:                   0.000
REMARK UNBOUND:                 0.000
REMARK  Name = ZINC000000134139
REMARK                            x       y       z     vdW  Elec       q    Type
REMARK                         _______ _______ _______ _____ _____    ______ ____
ROOT
ATOM      1  C   LIG    1       24.865  -6.364   1.720  0.00  0.00    +0.060 A 
ATOM      2  C   LIG    1       23.761  -5.847   2.381  0.00  0.00    +0.020 A 
ATOM      3  C   LIG    1       22.954  -4.914   1.768  0.00  0.00    +0.100 A 
ATOM      4  C   LIG    1       23.247  -4.485   0.471  0.00  0.00    -0.070 A 
ATOM      5  C   LIG    1       24.366  -5.008  -0.200  0.00  0.00    -0.010 A 
ATOM      6  C   LIG    1       24.696  -4.570  -1.570  0.00  0.00    -0.010 A 
ATOM      7  C   LIG    1       25.811  -5.100  -2.220  0.00  0.00    +0.030 A 
ATOM      8  C   LIG    1       26.122  -4.690  -3.499  0.00  0.00    +0.060 A 
ATOM      9  C   LIG    1       25.334  -3.753  -4.149  0.00  0.00    +0.030 A 
ATOM     10  C   LIG    1       24.227  -3.218  -3.523  0.00  0.00    +0.080 A 
ATOM     11  C   LIG    1       23.898  -3.620  -2.230  0.00  0.00    -0.050 A 
ATOM     12  C   LIG    1       22.717  -3.054  -1.553  0.00  0.00    +0.170 A 
ATOM     13  N   LIG    1       21.951  -2.162  -2.148  0.00  0.00    -0.160 NA
ATOM     14  N   LIG    1       20.844  -1.660  -1.457  0.00  0.00    -0.240 N 
ATOM     15  N   LIG    1       19.845  -0.731  -1.773  0.00  0.00    -0.030 NA
ATOM     16  N   LIG    1       19.067  -0.651  -0.747  0.00  0.00    +0.000 NA
ATOM     17  N   LIG    1       19.463  -1.434   0.193  0.00  0.00    -0.270 NA
ATOM     18  C   LIG    1       20.559  -2.086  -0.184  0.00  0.00    +0.370 A 
ATOM     19  N   LIG    1       21.330  -2.988   0.422  0.00  0.00    -0.390 NA
ATOM     20  C   LIG    1       22.388  -3.489  -0.192  0.00  0.00    +0.260 A 
ATOM     21  C   LIG    1       25.170  -5.953   0.441  0.00  0.00    +0.030 A 
ENDROOT
TORSDOF 0
ENDMDL
MODEL 9
REMARK VINA RESULT:    -6.576      9.959     10.785
REMARK INTER + INTRA:          -6.576
REMARK INTER:                  -6.576
REMARK INTRA:                   0.000
REMARK UNBOUND:                 0.000
REMARK  Name = ZINC000000134139
REMARK                            x       y       z     vdW  Elec       q    Type
REMARK                         _______ _______ _______ _____ _____    ______ ____
ROOT
ATOM      1  C   LIG    1       26.378  -7.083   1.502  0.00  0.00    +0.060 A 
ATOM      2  C   LIG    1       25.214  -7.353   0.799  0.00  0.00    +0.020 A 
ATOM      3  C   LIG    1       25.260  -8.057  -0.383  0.00  0.00    +0.100 A 
ATOM      4  C   LIG    1       26.486  -8.505  -0.880  0.00  0.00    -0.070 A 
ATOM      5  C   LIG    1       27.668  -8.232  -0.168  0.00  0.00    -0.010 A 
ATOM      6  C   LIG    1       28.975  -8.694  -0.673  0.00  0.00    -0.010 A 
ATOM      7  C   LIG    1       30.138  -8.413   0.046  0.00  0.00    +0.030 A 
ATOM      8  C   LIG    1       31.360  -8.842  -0.425  0.00  0.00    +0.060 A 
ATOM      9  C   LIG    1       31.447  -9.554  -1.611  0.00  0.00    +0.030 A 
ATOM     10  C   LIG    1       30.310  -9.841  -2.337  0.00  0.00    +0.080 A 
ATOM     11  C   LIG    1       29.065  -9.415  -1.876  0.00  0.00    -0.050 A 
ATOM     12  C   LIG    1       27.844  -9.717  -2.644  0.00  0.00    +0.170 A 
ATOM     13  N   LIG    1       27.898 -10.392  -3.775  0.00  0.00    -0.160 NA
ATOM     14  N   LIG    1       26.707 -10.650  -4.461  0.00  0.00    -0.240 N 
ATOM     15  N   LIG    1       26.401 -11.317  -5.654  0.00  0.00    -0.030 NA
ATOM     16  N   LIG    1       25.122 -11.249  -5.806  0.00  0.00    +0.000 NA
ATOM     17  N   LIG    1       24.577 -10.608  -4.834  0.00  0.00    -0.270 NA
ATOM     18  C   LIG    1       25.504 -10.210  -3.968  0.00  0.00    +0.370 A 
ATOM     19  N   LIG    1       25.444  -9.528  -2.825  0.00  0.00    -0.390 NA
ATOM     20  C   LIG    1       26.544  -9.259  -2.144  0.00  0.00    +0.260 A 
ATOM     21  C   LIG    1       27.598  -7.516   1.028  0.00  0.00    +0.030 A 
ENDROOT
TORSDOF 0
ENDMDL
