MODEL 1
REMARK VINA RESULT:    -8.302      0.000      0.000
REMARK INTER + INTRA:          -8.866
REMARK INTER:                  -9.272
REMARK INTRA:                   0.406
REMARK UNBOUND:                 0.406
REMARK  Name = ZINC000000808027
REMARK                            x       y       z     vdW  Elec       q    Type
REMARK                         _______ _______ _______ _____ _____    ______ ____
ROOT
ATOM      1  C   LIG    1       31.712 -18.802   3.717  0.00  0.00    -0.040 A 
ATOM      2  C   LIG    1       32.712 -17.973   3.229  0.00  0.00    +0.170 A 
ATOM      3  C   LIG    1       32.594 -17.382   1.988  0.00  0.00    +0.070 A 
ATOM      4  C   LIG    1       31.461 -17.619   1.220  0.00  0.00    +0.230 A 
ATOM      5  C   LIG    1       30.448 -18.460   1.719  0.00  0.00    -0.140 A 
ATOM      6  C   LIG    1       29.263 -18.690   0.882  0.00  0.00    +0.340 A 
ATOM      7  N   LIG    1       29.190 -18.105  -0.298  0.00  0.00    -0.440 NA
ATOM      8  C   LIG    1       30.165 -17.306  -0.755  0.00  0.00    +0.430 A 
ATOM      9  N   LIG    1       30.294 -16.628  -1.889  0.00  0.00    -0.280 NA
ATOM     10  N   LIG    1       31.407 -15.988  -1.903  0.00  0.00    +0.010 NA
ATOM     11  N   LIG    1       32.066 -16.192  -0.814  0.00  0.00    -0.070 NA
ATOM     12  N   LIG    1       31.291 -17.053  -0.026  0.00  0.00    -0.360 N 
ATOM     13  C   LIG    1       30.591 -19.052   2.974  0.00  0.00    +0.200 A 
ENDROOT
BRANCH   6  14
ATOM     14  C   LIG    1       28.168 -19.565   1.354  0.00  0.00    -0.080 A 
ATOM     15  C   LIG    1       28.048 -19.866   2.712  0.00  0.00    +0.040 A 
ATOM     16  C   LIG    1       27.024 -20.681   3.147  0.00  0.00    +0.030 A 
ATOM     17  C   LIG    1       26.117 -21.202   2.241  0.00  0.00    +0.060 A 
ATOM     18  C   LIG    1       26.231 -20.908   0.893  0.00  0.00    +0.020 A 
ATOM     19  C   LIG    1       27.246 -20.088   0.446  0.00  0.00    +0.080 A 
ENDBRANCH   6  14
BRANCH   1  21
ATOM     20  O   LIG    1       31.910 -18.727   6.048  0.00  0.00    -0.140 OA
ATOM     21  N   LIG    1       31.861 -19.425   5.050  0.00  0.00    +0.020 N 
ATOM     22  O   LIG    1       31.930 -20.638   5.152  0.00  0.00    -0.140 OA
ENDBRANCH   1  21
TORSDOF 2
ENDMDL
MODEL 2
REMARK VINA RESULT:    -8.252      2.536      2.954
REMARK INTER + INTRA:          -8.811
REMARK INTER:                  -8.294
REMARK INTRA:                  -0.517
REMARK UNBOUND:                 0.406
REMARK  Name = ZINC000000808027
REMARK                            x       y       z     vdW  Elec       q    Type
REMARK                         _______ _______ _______ _____ _____    ______ ____
ROOT
ATOM      1  C   LIG    1       31.831 -21.980   1.639  0.00  0.00    -0.040 A 
ATOM      2  C   LIG    1       33.010 -21.255   1.547  0.00  0.00    +0.170 A 
ATOM      3  C   LIG    1       32.987 -19.877   1.489  0.00  0.00    +0.070 A 
ATOM      4  C   LIG    1       31.770 -19.209   1.521  0.00  0.00    +0.230 A 
ATOM      5  C   LIG    1       30.575 -19.949   1.614  0.00  0.00    -0.140 A 
ATOM      6  C   LIG    1       29.305 -19.212   1.646  0.00  0.00    +0.340 A 
ATOM      7  N   LIG    1       29.327 -17.895   1.589  0.00  0.00    -0.440 NA
ATOM      8  C   LIG    1       30.476 -17.208   1.501  0.00  0.00    +0.430 A 
ATOM      9  N   LIG    1       30.725 -15.906   1.434  0.00  0.00    -0.280 NA
ATOM     10  N   LIG    1       31.990 -15.696   1.361  0.00  0.00    +0.010 NA
ATOM     11  N   LIG    1       32.641 -16.809   1.375  0.00  0.00    -0.070 NA
ATOM     12  N   LIG    1       31.689 -17.834   1.467  0.00  0.00    -0.360 N 
ATOM     13  C   LIG    1       30.621 -21.342   1.667  0.00  0.00    +0.200 A 
ENDROOT
BRANCH   6  14
ATOM     14  C   LIG    1       28.018 -19.936   1.743  0.00  0.00    -0.080 A 
ATOM     15  C   LIG    1       27.543 -20.358   2.985  0.00  0.00    +0.040 A 
ATOM     16  C   LIG    1       26.342 -21.033   3.069  0.00  0.00    +0.030 A 
ATOM     17  C   LIG    1       25.610 -21.292   1.924  0.00  0.00    +0.060 A 
ATOM     18  C   LIG    1       26.076 -20.877   0.689  0.00  0.00    +0.020 A 
ATOM     19  C   LIG    1       27.272 -20.196   0.592  0.00  0.00    +0.080 A 
ENDBRANCH   6  14
BRANCH   1  21
ATOM     20  O   LIG    1       31.477 -24.121   0.760  0.00  0.00    -0.140 OA
ATOM     21  N   LIG    1       31.881 -23.458   1.700  0.00  0.00    +0.020 N 
ATOM     22  O   LIG    1       32.330 -24.012   2.687  0.00  0.00    -0.140 OA
ENDBRANCH   1  21
TORSDOF 2
ENDMDL
MODEL 3
REMARK VINA RESULT:    -8.245      2.508      4.604
REMARK INTER + INTRA:          -8.803
REMARK INTER:                  -8.308
REMARK INTRA:                  -0.495
REMARK UNBOUND:                 0.406
REMARK  Name = ZINC000000808027
REMARK                            x       y       z     vdW  Elec       q    Type
REMARK                         _______ _______ _______ _____ _____    ______ ____
ROOT
ATOM      1  C   LIG    1       28.244 -19.599   1.226  0.00  0.00    -0.040 A 
ATOM      2  C   LIG    1       28.049 -18.834   0.086  0.00  0.00    +0.170 A 
ATOM      3  C   LIG    1       29.038 -17.986  -0.371  0.00  0.00    +0.070 A 
ATOM      4  C   LIG    1       30.240 -17.900   0.319  0.00  0.00    +0.230 A 
ATOM      5  C   LIG    1       30.434 -18.679   1.475  0.00  0.00    -0.140 A 
ATOM      6  C   LIG    1       31.717 -18.564   2.181  0.00  0.00    +0.340 A 
ATOM      7  N   LIG    1       32.635 -17.743   1.711  0.00  0.00    -0.440 NA
ATOM      8  C   LIG    1       32.432 -17.009   0.607  0.00  0.00    +0.430 A 
ATOM      9  N   LIG    1       33.203 -16.137  -0.030  0.00  0.00    -0.280 NA
ATOM     10  N   LIG    1       32.593 -15.667  -1.058  0.00  0.00    +0.010 NA
ATOM     11  N   LIG    1       31.415 -16.181  -1.166  0.00  0.00    -0.070 NA
ATOM     12  N   LIG    1       31.261 -17.070  -0.094  0.00  0.00    -0.360 N 
ATOM     13  C   LIG    1       29.419 -19.525   1.923  0.00  0.00    +0.200 A 
ENDROOT
BRANCH   6  14
ATOM     14  C   LIG    1       31.976 -19.358   3.403  0.00  0.00    -0.080 A 
ATOM     15  C   LIG    1       32.336 -20.703   3.300  0.00  0.00    +0.040 A 
ATOM     16  C   LIG    1       32.578 -21.439   4.442  0.00  0.00    +0.030 A 
ATOM     17  C   LIG    1       32.463 -20.846   5.687  0.00  0.00    +0.060 A 
ATOM     18  C   LIG    1       32.106 -19.513   5.796  0.00  0.00    +0.020 A 
ATOM     19  C   LIG    1       31.868 -18.765   4.661  0.00  0.00    +0.080 A 
ENDBRANCH   6  14
BRANCH   1  21
ATOM     20  O   LIG    1       26.996 -20.670   2.891  0.00  0.00    -0.140 OA
ATOM     21  N   LIG    1       27.169 -20.501   1.697  0.00  0.00    +0.020 N 
ATOM     22  O   LIG    1       26.454 -21.070   0.891  0.00  0.00    -0.140 OA
ENDBRANCH   1  21
TORSDOF 2
ENDMDL
MODEL 4
REMARK VINA RESULT:    -8.007      2.512      4.941
REMARK INTER + INTRA:          -8.537
REMARK INTER:                  -8.010
REMARK INTRA:                  -0.527
REMARK UNBOUND:                 0.406
REMARK  Name = ZINC000000808027
REMARK                            x       y       z     vdW  Elec       q    Type
REMARK                         _______ _______ _______ _____ _____    ______ ____
ROOT
ATOM      1  C   LIG    1       30.673 -18.780   4.112  0.00  0.00    -0.040 A 
ATOM      2  C   LIG    1       29.619 -19.291   4.855  0.00  0.00    +0.170 A 
ATOM      3  C   LIG    1       28.521 -19.847   4.231  0.00  0.00    +0.070 A 
ATOM      4  C   LIG    1       28.472 -19.895   2.845  0.00  0.00    +0.230 A 
ATOM      5  C   LIG    1       29.544 -19.375   2.094  0.00  0.00    -0.140 A 
ATOM      6  C   LIG    1       29.461 -19.440   0.629  0.00  0.00    +0.340 A 
ATOM      7  N   LIG    1       28.394 -19.981   0.072  0.00  0.00    -0.440 NA
ATOM      8  C   LIG    1       27.383 -20.471   0.804  0.00  0.00    +0.430 A 
ATOM      9  N   LIG    1       26.238 -21.047   0.458  0.00  0.00    -0.280 NA
ATOM     10  N   LIG    1       25.564 -21.365   1.504  0.00  0.00    +0.010 NA
ATOM     11  N   LIG    1       26.197 -21.032   2.576  0.00  0.00    -0.070 NA
ATOM     12  N   LIG    1       27.400 -20.439   2.169  0.00  0.00    -0.360 N 
ATOM     13  C   LIG    1       30.641 -18.812   2.745  0.00  0.00    +0.200 A 
ENDROOT
BRANCH   6  14
ATOM     14  C   LIG    1       30.557 -18.909  -0.211  0.00  0.00    -0.080 A 
ATOM     15  C   LIG    1       31.675 -19.699  -0.485  0.00  0.00    +0.040 A 
ATOM     16  C   LIG    1       32.694 -19.199  -1.270  0.00  0.00    +0.030 A 
ATOM     17  C   LIG    1       32.609 -17.917  -1.783  0.00  0.00    +0.060 A 
ATOM     18  C   LIG    1       31.504 -17.129  -1.515  0.00  0.00    +0.020 A 
ATOM     19  C   LIG    1       30.476 -17.619  -0.737  0.00  0.00    +0.080 A 
ENDBRANCH   6  14
BRANCH   1  21
ATOM     20  O   LIG    1       31.981 -18.345   6.004  0.00  0.00    -0.140 OA
ATOM     21  N   LIG    1       31.840 -18.188   4.804  0.00  0.00    +0.020 N 
ATOM     22  O   LIG    1       32.662 -17.548   4.173  0.00  0.00    -0.140 OA
ENDBRANCH   1  21
TORSDOF 2
ENDMDL
MODEL 5
REMARK VINA RESULT:    -7.762     14.139     15.742
REMARK INTER + INTRA:          -8.263
REMARK INTER:                  -7.800
REMARK INTRA:                  -0.463
REMARK UNBOUND:                 0.406
REMARK  Name = ZINC000000808027
REMARK                            x       y       z     vdW  Elec       q    Type
REMARK                         _______ _______ _______ _____ _____    ______ ____
ROOT
ATOM      1  C   LIG    1       25.501  -4.240  -3.305  0.00  0.00    -0.040 A 
ATOM      2  C   LIG    1       24.592  -3.201  -3.449  0.00  0.00    +0.170 A 
ATOM      3  C   LIG    1       23.660  -2.939  -2.466  0.00  0.00    +0.070 A 
ATOM      4  C   LIG    1       23.633  -3.724  -1.321  0.00  0.00    +0.230 A 
ATOM      5  C   LIG    1       24.556  -4.778  -1.179  0.00  0.00    -0.140 A 
ATOM      6  C   LIG    1       24.500  -5.589   0.044  0.00  0.00    +0.340 A 
ATOM      7  N   LIG    1       23.594  -5.305   0.960  0.00  0.00    -0.440 NA
ATOM      8  C   LIG    1       22.723  -4.297   0.807  0.00  0.00    +0.430 A 
ATOM      9  N   LIG    1       21.749  -3.844   1.586  0.00  0.00    -0.280 NA
ATOM     10  N   LIG    1       21.161  -2.845   1.032  0.00  0.00    +0.010 NA
ATOM     11  N   LIG    1       21.692  -2.579  -0.113  0.00  0.00    -0.070 NA
ATOM     12  N   LIG    1       22.724  -3.507  -0.307  0.00  0.00    -0.360 N 
ATOM     13  C   LIG    1       25.486  -5.028  -2.188  0.00  0.00    +0.200 A 
ENDROOT
BRANCH   6  14
ATOM     14  C   LIG    1       25.446  -6.709   0.248  0.00  0.00    -0.080 A 
ATOM     15  C   LIG    1       25.261  -7.914  -0.432  0.00  0.00    +0.040 A 
ATOM     16  C   LIG    1       26.146  -8.954  -0.240  0.00  0.00    +0.030 A 
ATOM     17  C   LIG    1       27.215  -8.805   0.626  0.00  0.00    +0.060 A 
ATOM     18  C   LIG    1       27.404  -7.613   1.304  0.00  0.00    +0.020 A 
ATOM     19  C   LIG    1       26.530  -6.563   1.115  0.00  0.00    +0.080 A 
ENDBRANCH   6  14
BRANCH   1  21
ATOM     20  O   LIG    1       26.212  -4.261  -5.535  0.00  0.00    -0.140 OA
ATOM     21  N   LIG    1       26.491  -4.501  -4.374  0.00  0.00    +0.020 N 
ATOM     22  O   LIG    1       27.587  -4.953  -4.092  0.00  0.00    -0.140 OA
ENDBRANCH   1  21
TORSDOF 2
ENDMDL
MODEL 6
REMARK VINA RESULT:    -7.481      4.263      5.636
REMARK INTER + INTRA:          -7.950
REMARK INTER:                  -7.413
REMARK INTRA:                  -0.537
REMARK UNBOUND:                 0.406
REMARK  Name = ZINC000000808027
REMARK                            x       y       z     vdW  Elec       q    Type
REMARK                         _______ _______ _______ _____ _____    ______ ____
ROOT
ATOM      1  C   LIG    1       28.524 -20.444   0.510  0.00  0.00    -0.040 A 
ATOM      2  C   LIG    1       28.290 -19.336   1.312  0.00  0.00    +0.170 A 
ATOM      3  C   LIG    1       29.341 -18.589   1.805  0.00  0.00    +0.070 A 
ATOM      4  C   LIG    1       30.645 -18.952   1.495  0.00  0.00    +0.230 A 
ATOM      5  C   LIG    1       30.877 -20.077   0.681  0.00  0.00    -0.140 A 
ATOM      6  C   LIG    1       32.269 -20.434   0.372  0.00  0.00    +0.340 A 
ATOM      7  N   LIG    1       33.243 -19.693   0.863  0.00  0.00    -0.440 NA
ATOM      8  C   LIG    1       33.001 -18.624   1.636  0.00  0.00    +0.430 A 
ATOM      9  N   LIG    1       33.815 -17.755   2.223  0.00  0.00    -0.280 NA
ATOM     10  N   LIG    1       33.138 -16.880   2.876  0.00  0.00    +0.010 NA
ATOM     11  N   LIG    1       31.873 -17.104   2.766  0.00  0.00    -0.070 NA
ATOM     12  N   LIG    1       31.731 -18.241   1.959  0.00  0.00    -0.360 N 
ATOM     13  C   LIG    1       29.801 -20.821   0.198  0.00  0.00    +0.200 A 
ENDROOT
BRANCH   6  14
ATOM     14  C   LIG    1       32.573 -21.606  -0.478  0.00  0.00    -0.080 A 
ATOM     15  C   LIG    1       32.631 -21.469  -1.865  0.00  0.00    +0.040 A 
ATOM     16  C   LIG    1       32.916 -22.565  -2.653  0.00  0.00    +0.030 A 
ATOM     17  C   LIG    1       33.143 -23.799  -2.069  0.00  0.00    +0.060 A 
ATOM     18  C   LIG    1       33.086 -23.942  -0.694  0.00  0.00    +0.020 A 
ATOM     19  C   LIG    1       32.809 -22.852   0.105  0.00  0.00    +0.080 A 
ENDBRANCH   6  14
BRANCH   1  21
ATOM     20  O   LIG    1       27.468 -21.798  -1.080  0.00  0.00    -0.140 OA
ATOM     21  N   LIG    1       27.381 -21.230  -0.006  0.00  0.00    +0.020 N 
ATOM     22  O   LIG    1       26.354 -21.313   0.645  0.00  0.00    -0.140 OA
ENDBRANCH   1  21
TORSDOF 2
ENDMDL
MODEL 7
REMARK VINA RESULT:    -7.458      2.701      3.149
REMARK INTER + INTRA:          -7.924
REMARK INTER:                  -7.484
REMARK INTRA:                  -0.440
REMARK UNBOUND:                 0.406
REMARK  Name = ZINC000000808027
REMARK                            x       y       z     vdW  Elec       q    Type
REMARK                         _______ _______ _______ _____ _____    ______ ____
ROOT
ATOM      1  C   LIG    1       31.849 -22.149   0.634  0.00  0.00    -0.040 A 
ATOM      2  C   LIG    1       32.907 -21.570  -0.051  0.00  0.00    +0.170 A 
ATOM      3  C   LIG    1       32.787 -20.308  -0.596  0.00  0.00    +0.070 A 
ATOM      4  C   LIG    1       31.595 -19.611  -0.455  0.00  0.00    +0.230 A 
ATOM      5  C   LIG    1       30.523 -20.202   0.241  0.00  0.00    -0.140 A 
ATOM      6  C   LIG    1       29.275 -19.438   0.372  0.00  0.00    +0.340 A 
ATOM      7  N   LIG    1       29.203 -18.235  -0.162  0.00  0.00    -0.440 NA
ATOM      8  C   LIG    1       30.234 -17.688  -0.822  0.00  0.00    +0.430 A 
ATOM      9  N   LIG    1       30.377 -16.514  -1.425  0.00  0.00    -0.280 NA
ATOM     10  N   LIG    1       31.552 -16.412  -1.933  0.00  0.00    +0.010 NA
ATOM     11  N   LIG    1       32.243 -17.477  -1.706  0.00  0.00    -0.070 NA
ATOM     12  N   LIG    1       31.420 -18.347  -0.978  0.00  0.00    -0.360 N 
ATOM     13  C   LIG    1       30.664 -21.481   0.779  0.00  0.00    +0.200 A 
ENDROOT
BRANCH   6  14
ATOM     14  C   LIG    1       28.116 -20.009   1.093  0.00  0.00    -0.080 A 
ATOM     15  C   LIG    1       27.008 -20.471   0.383  0.00  0.00    +0.040 A 
ATOM     16  C   LIG    1       25.930 -21.003   1.060  0.00  0.00    +0.030 A 
ATOM     17  C   LIG    1       25.947 -21.079   2.441  0.00  0.00    +0.060 A 
ATOM     18  C   LIG    1       27.043 -20.622   3.152  0.00  0.00    +0.020 A 
ATOM     19  C   LIG    1       28.129 -20.094   2.486  0.00  0.00    +0.080 A 
ENDBRANCH   6  14
BRANCH   1  21
ATOM     20  O   LIG    1       32.155 -23.644   2.409  0.00  0.00    -0.140 OA
ATOM     21  N   LIG    1       32.001 -23.505   1.209  0.00  0.00    +0.020 N 
ATOM     22  O   LIG    1       31.967 -24.482   0.482  0.00  0.00    -0.140 OA
ENDBRANCH   1  21
TORSDOF 2
ENDMDL
MODEL 8
REMARK VINA RESULT:    -7.374      3.200      5.078
REMARK INTER + INTRA:          -7.830
REMARK INTER:                  -7.292
REMARK INTRA:                  -0.538
REMARK UNBOUND:                 0.406
REMARK  Name = ZINC000000808027
REMARK                            x       y       z     vdW  Elec       q    Type
REMARK                         _______ _______ _______ _____ _____    ______ ____
ROOT
ATOM      1  C   LIG    1       31.195 -18.621   3.392  0.00  0.00    -0.040 A 
ATOM      2  C   LIG    1       29.888 -18.490   3.837  0.00  0.00    +0.170 A 
ATOM      3  C   LIG    1       28.848 -19.090   3.156  0.00  0.00    +0.070 A 
ATOM      4  C   LIG    1       29.115 -19.832   2.014  0.00  0.00    +0.230 A 
ATOM      5  C   LIG    1       30.443 -19.963   1.565  0.00  0.00    -0.140 A 
ATOM      6  C   LIG    1       30.691 -20.755   0.353  0.00  0.00    +0.340 A 
ATOM      7  N   LIG    1       29.669 -21.312  -0.268  0.00  0.00    -0.440 NA
ATOM      8  C   LIG    1       28.410 -21.176   0.175  0.00  0.00    +0.430 A 
ATOM      9  N   LIG    1       27.255 -21.642  -0.284  0.00  0.00    -0.280 NA
ATOM     10  N   LIG    1       26.287 -21.258   0.467  0.00  0.00    +0.010 NA
ATOM     11  N   LIG    1       26.724 -20.536   1.443  0.00  0.00    -0.070 NA
ATOM     12  N   LIG    1       28.115 -20.453   1.295  0.00  0.00    -0.360 N 
ATOM     13  C   LIG    1       31.478 -19.344   2.265  0.00  0.00    +0.200 A 
ENDROOT
BRANCH   6  14
ATOM     14  C   LIG    1       32.066 -20.926  -0.165  0.00  0.00    -0.080 A 
ATOM     15  C   LIG    1       32.830 -22.027   0.226  0.00  0.00    +0.040 A 
ATOM     16  C   LIG    1       34.112 -22.182  -0.260  0.00  0.00    +0.030 A 
ATOM     17  C   LIG    1       34.640 -21.248  -1.134  0.00  0.00    +0.060 A 
ATOM     18  C   LIG    1       33.888 -20.155  -1.526  0.00  0.00    +0.020 A 
ATOM     19  C   LIG    1       32.603 -19.992  -1.052  0.00  0.00    +0.080 A 
ENDBRANCH   6  14
BRANCH   1  21
ATOM     20  O   LIG    1       33.132 -17.316   3.543  0.00  0.00    -0.140 OA
ATOM     21  N   LIG    1       32.294 -17.969   4.139  0.00  0.00    +0.020 N 
ATOM     22  O   LIG    1       32.357 -18.080   5.351  0.00  0.00    -0.140 OA
ENDBRANCH   1  21
TORSDOF 2
ENDMDL
MODEL 9
REMARK VINA RESULT:    -7.281      3.241      3.892
REMARK INTER + INTRA:          -7.727
REMARK INTER:                  -7.244
REMARK INTRA:                  -0.483
REMARK UNBOUND:                 0.406
REMARK  Name = ZINC000000808027
REMARK                            x       y       z     vdW  Elec       q    Type
REMARK                         _______ _______ _______ _____ _____    ______ ____
ROOT
ATOM      1  C   LIG    1       32.663 -21.189  -1.079  0.00  0.00    -0.040 A 
ATOM      2  C   LIG    1       33.736 -20.510  -1.637  0.00  0.00    +0.170 A 
ATOM      3  C   LIG    1       33.861 -19.144  -1.486  0.00  0.00    +0.070 A 
ATOM      4  C   LIG    1       32.902 -18.443  -0.768  0.00  0.00    +0.230 A 
ATOM      5  C   LIG    1       31.814 -19.135  -0.203  0.00  0.00    -0.140 A 
ATOM      6  C   LIG    1       30.816 -18.364   0.550  0.00  0.00    +0.340 A 
ATOM      7  N   LIG    1       30.973 -17.061   0.672  0.00  0.00    -0.440 NA
ATOM      8  C   LIG    1       32.017 -16.418   0.127  0.00  0.00    +0.430 A 
ATOM      9  N   LIG    1       32.365 -15.137   0.125  0.00  0.00    -0.280 NA
ATOM     10  N   LIG    1       33.457 -14.971  -0.530  0.00  0.00    +0.010 NA
ATOM     11  N   LIG    1       33.890 -16.095  -0.991  0.00  0.00    -0.070 NA
ATOM     12  N   LIG    1       32.977 -17.078  -0.586  0.00  0.00    -0.360 N 
ATOM     13  C   LIG    1       31.704 -20.516  -0.373  0.00  0.00    +0.200 A 
ENDROOT
BRANCH   6  14
ATOM     14  C   LIG    1       29.652 -19.039   1.166  0.00  0.00    -0.080 A 
ATOM     15  C   LIG    1       29.640 -19.305   2.536  0.00  0.00    +0.040 A 
ATOM     16  C   LIG    1       28.552 -19.934   3.104  0.00  0.00    +0.030 A 
ATOM     17  C   LIG    1       27.474 -20.302   2.318  0.00  0.00    +0.060 A 
ATOM     18  C   LIG    1       27.480 -20.043   0.959  0.00  0.00    +0.020 A 
ATOM     19  C   LIG    1       28.560 -19.409   0.380  0.00  0.00    +0.080 A 
ENDBRANCH   6  14
BRANCH   1  21
ATOM     20  O   LIG    1       32.296 -23.364  -0.299  0.00  0.00    -0.140 OA
ATOM     21  N   LIG    1       32.551 -22.654  -1.255  0.00  0.00    +0.020 N 
ATOM     22  O   LIG    1       32.708 -23.149  -2.357  0.00  0.00    -0.140 OA
ENDBRANCH   1  21
TORSDOF 2
ENDMDL
