MODEL 1
REMARK VINA RESULT:    -8.693      0.000      0.000
REMARK INTER + INTRA:          -8.870
REMARK INTER:                  -9.710
REMARK INTRA:                   0.840
REMARK UNBOUND:                 0.840
REMARK  Name = ZINC000043591551
REMARK                            x       y       z     vdW  Elec       q    Type
REMARK                         _______ _______ _______ _____ _____    ______ ____
ROOT
ATOM      1  N   LIG    1       31.991 -17.780   0.906  0.00  0.00    -1.000 NA
ATOM      2  C   LIG    1       32.757 -18.113   2.111  0.00  0.00    +0.360 C 
ATOM      3  C   LIG    1       31.820 -18.261   3.284  0.00  0.00    -0.090 A 
ATOM      4  C   LIG    1       32.378 -18.335   4.553  0.00  0.00    +0.010 A 
ATOM      5  C   LIG    1       31.572 -18.480   5.664  0.00  0.00    +0.000 A 
ATOM      6  C   LIG    1       30.201 -18.554   5.511  0.00  0.00    +0.000 A 
ATOM      7  C   LIG    1       29.645 -18.477   4.251  0.00  0.00    +0.010 A 
ATOM      8  C   LIG    1       30.454 -18.324   3.131  0.00  0.00    -0.060 A 
ATOM      9  C   LIG    1       29.775 -18.219   1.790  0.00  0.00    +0.060 C 
ATOM     10  C   LIG    1       30.750 -18.533   0.664  0.00  0.00    +0.320 C 
ENDROOT
BRANCH   9  11
ATOM     11  C   LIG    1       28.626 -19.192   1.739  0.00  0.00    -0.080 A 
ATOM     12  C   LIG    1       27.973 -19.428   0.544  0.00  0.00    +0.010 A 
ATOM     13  C   LIG    1       26.918 -20.321   0.497  0.00  0.00    +0.000 A 
ATOM     14  C   LIG    1       26.517 -20.977   1.645  0.00  0.00    +0.000 A 
ATOM     15  C   LIG    1       27.170 -20.742   2.840  0.00  0.00    +0.000 A 
ATOM     16  C   LIG    1       28.228 -19.853   2.886  0.00  0.00    +0.010 A 
ENDBRANCH   9  11
BRANCH   1  18
ATOM     17  C   LIG    1       31.524 -16.874  -1.642  0.00  0.00    -0.280 C 
ATOM     18  S   LIG    1       32.498 -16.598  -0.137  0.00  0.00    +2.610 S 
ATOM     19  O   LIG    1       32.110 -15.385   0.492  0.00  0.00    -0.950 OA
ATOM     20  O   LIG    1       33.869 -16.898  -0.368  0.00  0.00    -0.950 OA
ENDBRANCH   1  18
TORSDOF 2
ENDMDL
MODEL 2
REMARK VINA RESULT:    -8.364      2.046      3.369
REMARK INTER + INTRA:          -8.501
REMARK INTER:                  -7.934
REMARK INTRA:                  -0.568
REMARK UNBOUND:                 0.840
REMARK  Name = ZINC000043591551
REMARK                            x       y       z     vdW  Elec       q    Type
REMARK                         _______ _______ _______ _____ _____    ______ ____
ROOT
ATOM      1  N   LIG    1       31.063 -17.861   0.740  0.00  0.00    -1.000 NA
ATOM      2  C   LIG    1       31.798 -18.727  -0.186  0.00  0.00    +0.360 C 
ATOM      3  C   LIG    1       31.542 -20.173   0.159  0.00  0.00    -0.090 A 
ATOM      4  C   LIG    1       32.338 -21.134  -0.449  0.00  0.00    +0.010 A 
ATOM      5  C   LIG    1       32.145 -22.474  -0.180  0.00  0.00    +0.000 A 
ATOM      6  C   LIG    1       31.151 -22.861   0.698  0.00  0.00    +0.000 A 
ATOM      7  C   LIG    1       30.361 -21.906   1.305  0.00  0.00    +0.010 A 
ATOM      8  C   LIG    1       30.558 -20.556   1.042  0.00  0.00    -0.060 A 
ATOM      9  C   LIG    1       29.676 -19.569   1.762  0.00  0.00    +0.060 C 
ATOM     10  C   LIG    1       29.670 -18.226   1.046  0.00  0.00    +0.320 C 
ENDROOT
BRANCH   9  11
ATOM     11  C   LIG    1       28.271 -20.110   1.818  0.00  0.00    -0.080 A 
ATOM     12  C   LIG    1       27.534 -20.242   0.656  0.00  0.00    +0.010 A 
ATOM     13  C   LIG    1       26.244 -20.738   0.708  0.00  0.00    +0.000 A 
ATOM     14  C   LIG    1       25.692 -21.101   1.922  0.00  0.00    +0.000 A 
ATOM     15  C   LIG    1       26.429 -20.969   3.083  0.00  0.00    +0.000 A 
ATOM     16  C   LIG    1       27.720 -20.478   3.032  0.00  0.00    +0.010 A 
ENDBRANCH   9  11
BRANCH   1  18
ATOM     17  C   LIG    1       32.613 -17.168   2.897  0.00  0.00    -0.280 C 
ATOM     18  S   LIG    1       31.773 -16.528   1.421  0.00  0.00    +2.610 S 
ATOM     19  O   LIG    1       32.721 -16.103   0.453  0.00  0.00    -0.950 OA
ATOM     20  O   LIG    1       30.680 -15.698   1.791  0.00  0.00    -0.950 OA
ENDBRANCH   1  18
TORSDOF 2
ENDMDL
MODEL 3
REMARK VINA RESULT:    -8.144      1.368      4.234
REMARK INTER + INTRA:          -8.256
REMARK INTER:                  -7.871
REMARK INTRA:                  -0.385
REMARK UNBOUND:                 0.840
REMARK  Name = ZINC000043591551
REMARK                            x       y       z     vdW  Elec       q    Type
REMARK                         _______ _______ _______ _____ _____    ______ ____
ROOT
ATOM      1  N   LIG    1       30.361 -17.196  -0.008  0.00  0.00    -1.000 NA
ATOM      2  C   LIG    1       28.997 -17.601  -0.359  0.00  0.00    +0.360 C 
ATOM      3  C   LIG    1       28.615 -18.833   0.422  0.00  0.00    -0.090 A 
ATOM      4  C   LIG    1       27.459 -19.504   0.049  0.00  0.00    +0.010 A 
ATOM      5  C   LIG    1       27.053 -20.632   0.733  0.00  0.00    +0.000 A 
ATOM      6  C   LIG    1       27.803 -21.096   1.797  0.00  0.00    +0.000 A 
ATOM      7  C   LIG    1       28.954 -20.432   2.166  0.00  0.00    +0.010 A 
ATOM      8  C   LIG    1       29.369 -19.299   1.476  0.00  0.00    -0.060 A 
ATOM      9  C   LIG    1       30.651 -18.643   1.918  0.00  0.00    +0.060 C 
ATOM     10  C   LIG    1       30.723 -17.206   1.419  0.00  0.00    +0.320 C 
ENDROOT
BRANCH   9  11
ATOM     11  C   LIG    1       30.718 -18.651   3.423  0.00  0.00    -0.080 A 
ATOM     12  C   LIG    1       31.873 -19.063   4.060  0.00  0.00    +0.010 A 
ATOM     13  C   LIG    1       31.934 -19.071   5.442  0.00  0.00    +0.000 A 
ATOM     14  C   LIG    1       30.841 -18.665   6.184  0.00  0.00    +0.000 A 
ATOM     15  C   LIG    1       29.687 -18.252   5.547  0.00  0.00    +0.000 A 
ATOM     16  C   LIG    1       29.627 -18.239   4.166  0.00  0.00    +0.010 A 
ENDBRANCH   9  11
BRANCH   1  18
ATOM     17  C   LIG    1       32.468 -18.233  -1.429  0.00  0.00    -0.280 C 
ATOM     18  S   LIG    1       31.454 -16.751  -1.170  0.00  0.00    +2.610 S 
ATOM     19  O   LIG    1       30.658 -16.485  -2.316  0.00  0.00    -0.950 OA
ATOM     20  O   LIG    1       32.221 -15.724  -0.556  0.00  0.00    -0.950 OA
ENDBRANCH   1  18
TORSDOF 2
ENDMDL
MODEL 4
REMARK VINA RESULT:    -7.811      3.490      4.320
REMARK INTER + INTRA:          -7.884
REMARK INTER:                  -7.445
REMARK INTRA:                  -0.440
REMARK UNBOUND:                 0.840
REMARK  Name = ZINC000043591551
REMARK                            x       y       z     vdW  Elec       q    Type
REMARK                         _______ _______ _______ _____ _____    ______ ____
ROOT
ATOM      1  N   LIG    1       31.447 -21.449   0.974  0.00  0.00    -1.000 NA
ATOM      2  C   LIG    1       31.914 -20.067   1.118  0.00  0.00    +0.360 C 
ATOM      3  C   LIG    1       30.823 -19.115   0.696  0.00  0.00    -0.090 A 
ATOM      4  C   LIG    1       31.158 -17.778   0.532  0.00  0.00    +0.010 A 
ATOM      5  C   LIG    1       30.200 -16.858   0.157  0.00  0.00    +0.000 A 
ATOM      6  C   LIG    1       28.898 -17.271  -0.055  0.00  0.00    +0.000 A 
ATOM      7  C   LIG    1       28.565 -18.600   0.104  0.00  0.00    +0.010 A 
ATOM      8  C   LIG    1       29.529 -19.530   0.475  0.00  0.00    -0.060 A 
ATOM      9  C   LIG    1       29.098 -20.968   0.603  0.00  0.00    +0.060 C 
ATOM     10  C   LIG    1       30.088 -21.757   1.449  0.00  0.00    +0.320 C 
ENDROOT
BRANCH   9  11
ATOM     11  C   LIG    1       27.738 -21.022   1.249  0.00  0.00    -0.080 A 
ATOM     12  C   LIG    1       27.628 -21.079   2.625  0.00  0.00    +0.010 A 
ATOM     13  C   LIG    1       26.380 -21.130   3.218  0.00  0.00    +0.000 A 
ATOM     14  C   LIG    1       25.242 -21.122   2.433  0.00  0.00    +0.000 A 
ATOM     15  C   LIG    1       25.351 -21.064   1.057  0.00  0.00    +0.000 A 
ATOM     16  C   LIG    1       26.599 -21.009   0.464  0.00  0.00    +0.010 A 
ENDBRANCH   9  11
BRANCH   1  18
ATOM     17  C   LIG    1       32.452 -22.198  -1.468  0.00  0.00    -0.280 C 
ATOM     18  S   LIG    1       32.407 -22.617   0.296  0.00  0.00    +2.610 S 
ATOM     19  O   LIG    1       33.680 -22.411   0.891  0.00  0.00    -0.950 OA
ATOM     20  O   LIG    1       31.688 -23.826   0.503  0.00  0.00    -0.950 OA
ENDBRANCH   1  18
TORSDOF 2
ENDMDL
MODEL 5
REMARK VINA RESULT:    -7.760      2.231      2.330
REMARK INTER + INTRA:          -7.827
REMARK INTER:                  -8.036
REMARK INTRA:                   0.209
REMARK UNBOUND:                 0.840
REMARK  Name = ZINC000043591551
REMARK                            x       y       z     vdW  Elec       q    Type
REMARK                         _______ _______ _______ _____ _____    ______ ____
ROOT
ATOM      1  N   LIG    1       31.930 -20.571   1.286  0.00  0.00    -1.000 NA
ATOM      2  C   LIG    1       32.429 -20.484   2.661  0.00  0.00    +0.360 C 
ATOM      3  C   LIG    1       31.441 -19.727   3.513  0.00  0.00    -0.090 A 
ATOM      4  C   LIG    1       31.848 -19.333   4.781  0.00  0.00    +0.010 A 
ATOM      5  C   LIG    1       30.985 -18.646   5.611  0.00  0.00    +0.000 A 
ATOM      6  C   LIG    1       29.707 -18.350   5.177  0.00  0.00    +0.000 A 
ATOM      7  C   LIG    1       29.303 -18.737   3.916  0.00  0.00    +0.010 A 
ATOM      8  C   LIG    1       30.172 -19.424   3.076  0.00  0.00    -0.060 A 
ATOM      9  C   LIG    1       29.671 -19.791   1.703  0.00  0.00    +0.060 C 
ATOM     10  C   LIG    1       30.509 -20.910   1.102  0.00  0.00    +0.320 C 
ENDROOT
BRANCH   9  11
ATOM     11  C   LIG    1       28.237 -20.242   1.803  0.00  0.00    -0.080 A 
ATOM     12  C   LIG    1       27.427 -20.225   0.683  0.00  0.00    +0.010 A 
ATOM     13  C   LIG    1       26.111 -20.640   0.775  0.00  0.00    +0.000 A 
ATOM     14  C   LIG    1       25.606 -21.070   1.987  0.00  0.00    +0.000 A 
ATOM     15  C   LIG    1       26.415 -21.087   3.107  0.00  0.00    +0.000 A 
ATOM     16  C   LIG    1       27.732 -20.678   3.015  0.00  0.00    +0.010 A 
ENDBRANCH   9  11
BRANCH   1  18
ATOM     17  C   LIG    1       33.111 -18.487  -0.055  0.00  0.00    -0.280 C 
ATOM     18  S   LIG    1       32.922 -20.291  -0.011  0.00  0.00    +2.610 S 
ATOM     19  O   LIG    1       34.149 -20.912   0.347  0.00  0.00    -0.950 OA
ATOM     20  O   LIG    1       32.172 -20.741  -1.131  0.00  0.00    -0.950 OA
ENDBRANCH   1  18
TORSDOF 2
ENDMDL
MODEL 6
REMARK VINA RESULT:    -7.707      1.568      4.151
REMARK INTER + INTRA:          -7.768
REMARK INTER:                  -7.357
REMARK INTRA:                  -0.411
REMARK UNBOUND:                 0.840
REMARK  Name = ZINC000043591551
REMARK                            x       y       z     vdW  Elec       q    Type
REMARK                         _______ _______ _______ _____ _____    ______ ____
ROOT
ATOM      1  N   LIG    1       31.710 -17.064   0.615  0.00  0.00    -1.000 NA
ATOM      2  C   LIG    1       30.261 -17.052   0.392  0.00  0.00    +0.360 C 
ATOM      3  C   LIG    1       29.685 -18.407   0.715  0.00  0.00    -0.090 A 
ATOM      4  C   LIG    1       28.374 -18.661   0.336  0.00  0.00    +0.010 A 
ATOM      5  C   LIG    1       27.789 -19.881   0.613  0.00  0.00    +0.000 A 
ATOM      6  C   LIG    1       28.514 -20.854   1.275  0.00  0.00    +0.000 A 
ATOM      7  C   LIG    1       29.818 -20.604   1.649  0.00  0.00    +0.010 A 
ATOM      8  C   LIG    1       30.412 -19.379   1.365  0.00  0.00    -0.060 A 
ATOM      9  C   LIG    1       31.847 -19.188   1.779  0.00  0.00    +0.060 C 
ATOM     10  C   LIG    1       32.199 -17.708   1.845  0.00  0.00    +0.320 C 
ENDROOT
BRANCH   9  11
ATOM     11  C   LIG    1       32.059 -19.810   3.135  0.00  0.00    -0.080 A 
ATOM     12  C   LIG    1       32.451 -21.131   3.235  0.00  0.00    +0.010 A 
ATOM     13  C   LIG    1       32.646 -21.702   4.480  0.00  0.00    +0.000 A 
ATOM     14  C   LIG    1       32.449 -20.951   5.623  0.00  0.00    +0.000 A 
ATOM     15  C   LIG    1       32.058 -19.629   5.523  0.00  0.00    +0.000 A 
ATOM     16  C   LIG    1       31.868 -19.057   4.279  0.00  0.00    +0.010 A 
ENDBRANCH   9  11
BRANCH   1  18
ATOM     17  C   LIG    1       31.958 -16.644  -2.087  0.00  0.00    -0.280 C 
ATOM     18  S   LIG    1       32.756 -16.387  -0.477  0.00  0.00    +2.610 S 
ATOM     19  O   LIG    1       32.767 -15.007  -0.141  0.00  0.00    -0.950 OA
ATOM     20  O   LIG    1       33.933 -17.177  -0.372  0.00  0.00    -0.950 OA
ENDBRANCH   1  18
TORSDOF 2
ENDMDL
MODEL 7
REMARK VINA RESULT:    -7.464      2.796      4.137
REMARK INTER + INTRA:          -7.497
REMARK INTER:                  -7.690
REMARK INTRA:                   0.194
REMARK UNBOUND:                 0.840
REMARK  Name = ZINC000043591551
REMARK                            x       y       z     vdW  Elec       q    Type
REMARK                         _______ _______ _______ _____ _____    ______ ____
ROOT
ATOM      1  N   LIG    1       30.813 -19.765   3.395  0.00  0.00    -1.000 NA
ATOM      2  C   LIG    1       30.901 -18.349   3.024  0.00  0.00    +0.360 C 
ATOM      3  C   LIG    1       30.040 -18.086   1.815  0.00  0.00    -0.090 A 
ATOM      4  C   LIG    1       30.183 -16.864   1.172  0.00  0.00    +0.010 A 
ATOM      5  C   LIG    1       29.416 -16.561   0.064  0.00  0.00    +0.000 A 
ATOM      6  C   LIG    1       28.498 -17.482  -0.405  0.00  0.00    +0.000 A 
ATOM      7  C   LIG    1       28.358 -18.698   0.231  0.00  0.00    +0.010 A 
ATOM      8  C   LIG    1       29.134 -19.008   1.342  0.00  0.00    -0.060 A 
ATOM      9  C   LIG    1       28.946 -20.365   1.967  0.00  0.00    +0.060 C 
ATOM     10  C   LIG    1       29.476 -20.382   3.394  0.00  0.00    +0.320 C 
ENDROOT
BRANCH   9  11
ATOM     11  C   LIG    1       27.479 -20.706   1.978  0.00  0.00    -0.080 A 
ATOM     12  C   LIG    1       26.784 -20.807   0.788  0.00  0.00    +0.010 A 
ATOM     13  C   LIG    1       25.436 -21.121   0.798  0.00  0.00    +0.000 A 
ATOM     14  C   LIG    1       24.786 -21.333   1.999  0.00  0.00    +0.000 A 
ATOM     15  C   LIG    1       25.481 -21.234   3.189  0.00  0.00    +0.000 A 
ATOM     16  C   LIG    1       26.828 -20.925   3.179  0.00  0.00    +0.010 A 
ENDBRANCH   9  11
BRANCH   1  18
ATOM     17  C   LIG    1       31.727 -22.353   3.396  0.00  0.00    -0.280 C 
ATOM     18  S   LIG    1       32.164 -20.637   3.792  0.00  0.00    +2.610 S 
ATOM     19  O   LIG    1       33.164 -20.159   2.904  0.00  0.00    -0.950 OA
ATOM     20  O   LIG    1       32.290 -20.467   5.198  0.00  0.00    -0.950 OA
ENDBRANCH   1  18
TORSDOF 2
ENDMDL
MODEL 8
REMARK VINA RESULT:    -7.333      3.395      5.252
REMARK INTER + INTRA:          -7.350
REMARK INTER:                  -6.798
REMARK INTRA:                  -0.551
REMARK UNBOUND:                 0.840
REMARK  Name = ZINC000043591551
REMARK                            x       y       z     vdW  Elec       q    Type
REMARK                         _______ _______ _______ _____ _____    ______ ____
ROOT
ATOM      1  N   LIG    1       28.772 -19.953   1.706  0.00  0.00    -1.000 NA
ATOM      2  C   LIG    1       28.586 -19.109   2.891  0.00  0.00    +0.360 C 
ATOM      3  C   LIG    1       29.819 -19.172   3.757  0.00  0.00    -0.090 A 
ATOM      4  C   LIG    1       29.739 -18.635   5.036  0.00  0.00    +0.010 A 
ATOM      5  C   LIG    1       30.838 -18.654   5.872  0.00  0.00    +0.000 A 
ATOM      6  C   LIG    1       32.024 -19.210   5.432  0.00  0.00    +0.000 A 
ATOM      7  C   LIG    1       32.103 -19.747   4.164  0.00  0.00    +0.010 A 
ATOM      8  C   LIG    1       30.997 -19.735   3.322  0.00  0.00    -0.060 A 
ATOM      9  C   LIG    1       31.149 -20.363   1.962  0.00  0.00    +0.060 C 
ATOM     10  C   LIG    1       30.067 -19.868   1.012  0.00  0.00    +0.320 C 
ENDROOT
BRANCH   9  11
ATOM     11  C   LIG    1       32.502 -20.010   1.401  0.00  0.00    -0.080 A 
ATOM     12  C   LIG    1       32.792 -18.700   1.070  0.00  0.00    +0.010 A 
ATOM     13  C   LIG    1       34.035 -18.376   0.555  0.00  0.00    +0.000 A 
ATOM     14  C   LIG    1       34.985 -19.363   0.373  0.00  0.00    +0.000 A 
ATOM     15  C   LIG    1       34.695 -20.672   0.705  0.00  0.00    +0.000 A 
ATOM     16  C   LIG    1       33.456 -20.996   1.224  0.00  0.00    +0.010 A 
ENDBRANCH   9  11
BRANCH   1  18
ATOM     17  C   LIG    1       26.373 -21.001   2.534  0.00  0.00    -0.280 C 
ATOM     18  S   LIG    1       27.575 -20.967   1.174  0.00  0.00    +2.610 S 
ATOM     19  O   LIG    1       27.030 -20.302   0.044  0.00  0.00    -0.950 OA
ATOM     20  O   LIG    1       28.216 -22.229   1.044  0.00  0.00    -0.950 OA
ENDBRANCH   1  18
TORSDOF 2
ENDMDL
MODEL 9
REMARK VINA RESULT:    -7.252      3.309      5.211
REMARK INTER + INTRA:          -7.260
REMARK INTER:                  -6.704
REMARK INTRA:                  -0.556
REMARK UNBOUND:                 0.840
REMARK  Name = ZINC000043591551
REMARK                            x       y       z     vdW  Elec       q    Type
REMARK                         _______ _______ _______ _____ _____    ______ ____
ROOT
ATOM      1  N   LIG    1       28.447 -19.985   1.350  0.00  0.00    -1.000 NA
ATOM      2  C   LIG    1       28.285 -19.431   2.697  0.00  0.00    +0.360 C 
ATOM      3  C   LIG    1       29.640 -19.133   3.290  0.00  0.00    -0.090 A 
ATOM      4  C   LIG    1       29.702 -18.832   4.644  0.00  0.00    +0.010 A 
ATOM      5  C   LIG    1       30.912 -18.541   5.242  0.00  0.00    +0.000 A 
ATOM      6  C   LIG    1       32.069 -18.549   4.486  0.00  0.00    +0.000 A 
ATOM      7  C   LIG    1       32.009 -18.851   3.141  0.00  0.00    +0.010 A 
ATOM      8  C   LIG    1       30.792 -19.151   2.538  0.00  0.00    -0.060 A 
ATOM      9  C   LIG    1       30.808 -19.498   1.073  0.00  0.00    +0.060 C 
ATOM     10  C   LIG    1       29.423 -19.332   0.462  0.00  0.00    +0.320 C 
ENDROOT
BRANCH   9  11
ATOM     11  C   LIG    1       31.778 -18.594   0.359  0.00  0.00    -0.080 A 
ATOM     12  C   LIG    1       31.488 -17.251   0.208  0.00  0.00    +0.010 A 
ATOM     13  C   LIG    1       32.379 -16.421  -0.448  0.00  0.00    +0.000 A 
ATOM     14  C   LIG    1       33.558 -16.935  -0.952  0.00  0.00    +0.000 A 
ATOM     15  C   LIG    1       33.849 -18.277  -0.800  0.00  0.00    +0.000 A 
ATOM     16  C   LIG    1       32.961 -19.106  -0.141  0.00  0.00    +0.010 A 
ENDBRANCH   9  11
BRANCH   1  18
ATOM     17  C   LIG    1       25.873 -20.940   1.375  0.00  0.00    -0.280 C 
ATOM     18  S   LIG    1       27.572 -21.299   0.849  0.00  0.00    +2.610 S 
ATOM     19  O   LIG    1       27.672 -21.267  -0.568  0.00  0.00    -0.950 OA
ATOM     20  O   LIG    1       28.107 -22.383   1.597  0.00  0.00    -0.950 OA
ENDBRANCH   1  18
TORSDOF 2
ENDMDL
