MODEL 1
REMARK VINA RESULT:    -8.116      0.000      0.000
REMARK INTER + INTRA:          -9.599
REMARK INTER:                 -10.014
REMARK INTRA:                   0.415
REMARK UNBOUND:                 0.415
REMARK  Name = ZINC000575957385
REMARK                            x       y       z     vdW  Elec       q    Type
REMARK                         _______ _______ _______ _____ _____    ______ ____
ROOT
ATOM      1  C   LIG    1       30.601 -19.954   0.566  0.00  0.00    +0.320 C 
ENDROOT
BRANCH   1   2
ATOM      2  N   LIG    1       30.955 -20.758   1.738  0.00  0.00    -0.710 N 
ATOM      3  H   LIG    1       30.388 -21.497   2.010  0.00  0.00    +0.400 HD
ATOM      4  C   LIG    1       32.068 -20.471   2.442  0.00  0.00    +0.560 C 
ATOM      5  O   LIG    1       32.826 -19.604   2.052  0.00  0.00    -0.510 OA
BRANCH   4   6
ATOM      6  C   LIG    1       32.367 -21.210   3.691  0.00  0.00    -0.140 A 
ATOM      7  C   LIG    1       32.676 -22.575   3.667  0.00  0.00    +0.070 A 
ATOM      8  C   LIG    1       32.944 -23.199   4.875  0.00  0.00    +0.210 A 
ATOM      9  N   LIG    1       32.904 -22.506   5.997  0.00  0.00    -0.220 NA
ATOM     10  N   LIG    1       32.621 -21.255   6.025  0.00  0.00    -0.240 NA
ATOM     11  C   LIG    1       32.355 -20.567   4.932  0.00  0.00    +0.130 A 
ATOM     12  C   LIG    1       32.030 -19.099   5.021  0.00  0.00    +0.160 C 
ENDBRANCH   4   6
ENDBRANCH   1   2
BRANCH   1  13
ATOM     13  C   LIG    1       29.412 -19.054   0.904  0.00  0.00    -0.110 C 
ATOM     14  C   LIG    1       29.195 -17.813   0.035  0.00  0.00    +0.040 C 
ATOM     15  C   LIG    1       29.715 -17.664   1.467  0.00  0.00    +0.050 C 
BRANCH  13  20
ATOM     16  C   LIG    1       24.716 -21.774   2.891  0.00  0.00    +0.090 C 
ATOM     17  C   LIG    1       25.941 -21.064   2.373  0.00  0.00    -0.080 A 
ATOM     18  C   LIG    1       26.155 -20.960   1.011  0.00  0.00    +0.000 A 
ATOM     19  C   LIG    1       27.278 -20.310   0.536  0.00  0.00    +0.010 A 
ATOM     20  C   LIG    1       28.187 -19.763   1.422  0.00  0.00    -0.060 A 
ATOM     21  C   LIG    1       27.973 -19.866   2.784  0.00  0.00    -0.070 A 
ATOM     22  C   LIG    1       28.963 -19.269   3.750  0.00  0.00    +0.090 C 
ATOM     23  C   LIG    1       26.847 -20.514   3.259  0.00  0.00    +0.000 A 
ENDBRANCH  13  20
ENDBRANCH   1  13
TORSDOF 4
ENDMDL
MODEL 2
REMARK VINA RESULT:    -7.355      1.885      2.162
REMARK INTER + INTRA:          -8.660
REMARK INTER:                  -8.510
REMARK INTRA:                  -0.150
REMARK UNBOUND:                 0.415
REMARK  Name = ZINC000575957385
REMARK                            x       y       z     vdW  Elec       q    Type
REMARK                         _______ _______ _______ _____ _____    ______ ____
ROOT
ATOM      1  C   LIG    1       30.740 -19.359  -0.011  0.00  0.00    +0.320 C 
ENDROOT
BRANCH   1   2
ATOM      2  N   LIG    1       31.166 -20.255   1.066  0.00  0.00    -0.710 N 
ATOM      3  H   LIG    1       31.385 -19.894   1.940  0.00  0.00    +0.400 HD
ATOM      4  C   LIG    1       31.254 -21.582   0.845  0.00  0.00    +0.560 C 
ATOM      5  O   LIG    1       30.893 -22.045  -0.220  0.00  0.00    -0.510 OA
BRANCH   4   6
ATOM      6  C   LIG    1       31.790 -22.475   1.898  0.00  0.00    -0.140 A 
ATOM      7  C   LIG    1       33.167 -22.569   2.135  0.00  0.00    +0.070 A 
ATOM      8  C   LIG    1       33.593 -23.427   3.137  0.00  0.00    +0.210 A 
ATOM      9  N   LIG    1       32.711 -24.121   3.829  0.00  0.00    -0.220 NA
ATOM     10  N   LIG    1       31.448 -24.040   3.616  0.00  0.00    -0.240 NA
ATOM     11  C   LIG    1       30.939 -23.250   2.691  0.00  0.00    +0.130 A 
ATOM     12  C   LIG    1       29.448 -23.192   2.481  0.00  0.00    +0.160 C 
ENDBRANCH   4   6
ENDBRANCH   1   2
BRANCH   1  13
ATOM     13  C   LIG    1       29.508 -18.570   0.437  0.00  0.00    -0.110 C 
ATOM     14  C   LIG    1       29.060 -17.399  -0.440  0.00  0.00    +0.040 C 
ATOM     15  C   LIG    1       29.724 -17.132   0.913  0.00  0.00    +0.050 C 
BRANCH  13  20
ATOM     16  C   LIG    1       25.394 -21.662   3.066  0.00  0.00    +0.090 C 
ATOM     17  C   LIG    1       26.467 -20.855   2.380  0.00  0.00    -0.080 A 
ATOM     18  C   LIG    1       26.509 -20.793   0.999  0.00  0.00    +0.000 A 
ATOM     19  C   LIG    1       27.493 -20.054   0.371  0.00  0.00    +0.010 A 
ATOM     20  C   LIG    1       28.435 -19.376   1.122  0.00  0.00    -0.060 A 
ATOM     21  C   LIG    1       28.393 -19.438   2.503  0.00  0.00    -0.070 A 
ATOM     22  C   LIG    1       29.419 -18.698   3.323  0.00  0.00    +0.090 C 
ATOM     23  C   LIG    1       27.406 -20.174   3.132  0.00  0.00    +0.000 A 
ENDBRANCH  13  20
ENDBRANCH   1  13
TORSDOF 4
ENDMDL
MODEL 3
REMARK VINA RESULT:    -7.350      2.528      3.099
REMARK INTER + INTRA:          -8.654
REMARK INTER:                  -8.295
REMARK INTRA:                  -0.359
REMARK UNBOUND:                 0.415
REMARK  Name = ZINC000575957385
REMARK                            x       y       z     vdW  Elec       q    Type
REMARK                         _______ _______ _______ _____ _____    ______ ____
ROOT
ATOM      1  C   LIG    1       30.936 -19.224   0.280  0.00  0.00    +0.320 C 
ENDROOT
BRANCH   1   2
ATOM      2  N   LIG    1       30.706 -20.670   0.288  0.00  0.00    -0.710 N 
ATOM      3  H   LIG    1       30.140 -21.076  -0.388  0.00  0.00    +0.400 HD
ATOM      4  C   LIG    1       31.278 -21.439   1.236  0.00  0.00    +0.560 C 
ATOM      5  O   LIG    1       32.057 -20.946   2.028  0.00  0.00    -0.510 OA
BRANCH   4   6
ATOM      6  C   LIG    1       30.958 -22.883   1.313  0.00  0.00    -0.140 A 
ATOM      7  C   LIG    1       29.819 -23.337   1.990  0.00  0.00    +0.070 A 
ATOM      8  C   LIG    1       29.586 -24.703   2.020  0.00  0.00    +0.210 A 
ATOM      9  N   LIG    1       30.424 -25.527   1.421  0.00  0.00    -0.220 NA
ATOM     10  N   LIG    1       31.468 -25.117   0.800  0.00  0.00    -0.240 NA
ATOM     11  C   LIG    1       31.779 -23.839   0.708  0.00  0.00    +0.130 A 
ATOM     12  C   LIG    1       33.018 -23.412  -0.035  0.00  0.00    +0.160 C 
ENDBRANCH   4   6
ENDBRANCH   1   2
BRANCH   1  13
ATOM     13  C   LIG    1       29.617 -18.496   0.549  0.00  0.00    -0.110 C 
ATOM     14  C   LIG    1       29.170 -17.444  -0.468  0.00  0.00    +0.040 C 
ATOM     15  C   LIG    1       29.691 -17.010   0.904  0.00  0.00    +0.050 C 
BRANCH  13  20
ATOM     16  C   LIG    1       25.507 -21.652   3.105  0.00  0.00    +0.090 C 
ATOM     17  C   LIG    1       26.579 -20.829   2.438  0.00  0.00    -0.080 A 
ATOM     18  C   LIG    1       26.581 -20.680   1.064  0.00  0.00    +0.000 A 
ATOM     19  C   LIG    1       27.565 -19.925   0.453  0.00  0.00    +0.010 A 
ATOM     20  C   LIG    1       28.545 -19.319   1.215  0.00  0.00    -0.060 A 
ATOM     21  C   LIG    1       28.542 -19.467   2.590  0.00  0.00    -0.070 A 
ATOM     22  C   LIG    1       29.611 -18.805   3.422  0.00  0.00    +0.090 C 
ATOM     23  C   LIG    1       27.557 -20.219   3.202  0.00  0.00    +0.000 A 
ENDBRANCH  13  20
ENDBRANCH   1  13
TORSDOF 4
ENDMDL
MODEL 4
REMARK VINA RESULT:    -7.350      2.482      4.060
REMARK INTER + INTRA:          -8.654
REMARK INTER:                  -7.860
REMARK INTRA:                  -0.794
REMARK UNBOUND:                 0.415
REMARK  Name = ZINC000575957385
REMARK                            x       y       z     vdW  Elec       q    Type
REMARK                         _______ _______ _______ _____ _____    ______ ____
ROOT
ATOM      1  C   LIG    1       28.637 -21.972   2.117  0.00  0.00    +0.320 C 
ENDROOT
BRANCH   1   2
ATOM      2  N   LIG    1       29.935 -22.066   1.447  0.00  0.00    -0.710 N 
ATOM      3  H   LIG    1       29.980 -22.106   0.478  0.00  0.00    +0.400 HD
ATOM      4  C   LIG    1       31.070 -22.098   2.174  0.00  0.00    +0.560 C 
ATOM      5  O   LIG    1       31.021 -21.957   3.381  0.00  0.00    -0.510 OA
BRANCH   4   6
ATOM      6  C   LIG    1       32.375 -22.305   1.505  0.00  0.00    -0.140 A 
ATOM      7  C   LIG    1       32.860 -23.594   1.249  0.00  0.00    +0.070 A 
ATOM      8  C   LIG    1       34.090 -23.708   0.619  0.00  0.00    +0.210 A 
ATOM      9  N   LIG    1       34.760 -22.623   0.282  0.00  0.00    -0.220 NA
ATOM     10  N   LIG    1       34.321 -21.441   0.516  0.00  0.00    -0.240 NA
ATOM     11  C   LIG    1       33.162 -21.222   1.104  0.00  0.00    +0.130 A 
ATOM     12  C   LIG    1       32.692 -19.812   1.354  0.00  0.00    +0.160 C 
ENDBRANCH   4   6
ENDBRANCH   1   2
BRANCH   1  13
ATOM     13  C   LIG    1       27.897 -20.727   1.625  0.00  0.00    -0.110 C 
ATOM     14  C   LIG    1       26.398 -20.632   1.919  0.00  0.00    +0.040 C 
ATOM     15  C   LIG    1       26.884 -20.908   0.494  0.00  0.00    +0.050 C 
BRANCH  13  20
ATOM     16  C   LIG    1       30.945 -15.819   1.721  0.00  0.00    +0.090 C 
ATOM     17  C   LIG    1       30.151 -17.099   1.696  0.00  0.00    -0.080 A 
ATOM     18  C   LIG    1       29.758 -17.645   0.488  0.00  0.00    +0.000 A 
ATOM     19  C   LIG    1       29.028 -18.819   0.465  0.00  0.00    +0.010 A 
ATOM     20  C   LIG    1       28.692 -19.447   1.650  0.00  0.00    -0.060 A 
ATOM     21  C   LIG    1       29.086 -18.901   2.858  0.00  0.00    -0.070 A 
ATOM     22  C   LIG    1       28.721 -19.587   4.149  0.00  0.00    +0.090 C 
ATOM     23  C   LIG    1       29.818 -17.729   2.881  0.00  0.00    +0.000 A 
ENDBRANCH  13  20
ENDBRANCH   1  13
TORSDOF 4
ENDMDL
MODEL 5
REMARK VINA RESULT:    -7.096      3.039      5.570
REMARK INTER + INTRA:          -8.340
REMARK INTER:                  -8.392
REMARK INTRA:                   0.052
REMARK UNBOUND:                 0.415
REMARK  Name = ZINC000575957385
REMARK                            x       y       z     vdW  Elec       q    Type
REMARK                         _______ _______ _______ _____ _____    ______ ____
ROOT
ATOM      1  C   LIG    1       28.128 -19.154   0.362  0.00  0.00    +0.320 C 
ENDROOT
BRANCH   1   2
ATOM      2  N   LIG    1       29.506 -18.734   0.103  0.00  0.00    -0.710 N 
ATOM      3  H   LIG    1       30.243 -19.329   0.312  0.00  0.00    +0.400 HD
ATOM      4  C   LIG    1       29.754 -17.518  -0.423  0.00  0.00    +0.560 C 
ATOM      5  O   LIG    1       28.830 -16.807  -0.769  0.00  0.00    -0.510 OA
BRANCH   4   6
ATOM      6  C   LIG    1       31.149 -17.047  -0.581  0.00  0.00    -0.140 A 
ATOM      7  C   LIG    1       31.787 -17.079  -1.828  0.00  0.00    +0.070 A 
ATOM      8  C   LIG    1       33.094 -16.622  -1.897  0.00  0.00    +0.210 A 
ATOM      9  N   LIG    1       33.694 -16.177  -0.811  0.00  0.00    -0.220 NA
ATOM     10  N   LIG    1       33.116 -16.147   0.334  0.00  0.00    -0.240 NA
ATOM     11  C   LIG    1       31.873 -16.553   0.508  0.00  0.00    +0.130 A 
ATOM     12  C   LIG    1       31.241 -16.495   1.874  0.00  0.00    +0.160 C 
ENDBRANCH   4   6
ENDBRANCH   1   2
BRANCH   1  13
ATOM     13  C   LIG    1       28.102 -20.119   1.548  0.00  0.00    -0.110 C 
ATOM     14  C   LIG    1       27.747 -21.581   1.264  0.00  0.00    +0.040 C 
ATOM     15  C   LIG    1       26.743 -20.673   1.980  0.00  0.00    +0.050 C 
BRANCH  13  20
ATOM     16  C   LIG    1       31.998 -19.082   5.688  0.00  0.00    +0.090 C 
ATOM     17  C   LIG    1       30.982 -19.352   4.609  0.00  0.00    -0.080 A 
ATOM     18  C   LIG    1       29.766 -18.694   4.623  0.00  0.00    +0.000 A 
ATOM     19  C   LIG    1       28.834 -18.943   3.633  0.00  0.00    +0.010 A 
ATOM     20  C   LIG    1       29.118 -19.848   2.628  0.00  0.00    -0.060 A 
ATOM     21  C   LIG    1       30.335 -20.506   2.613  0.00  0.00    -0.070 A 
ATOM     22  C   LIG    1       30.644 -21.492   1.517  0.00  0.00    +0.090 C 
ATOM     23  C   LIG    1       31.268 -20.255   3.601  0.00  0.00    +0.000 A 
ENDBRANCH  13  20
ENDBRANCH   1  13
TORSDOF 4
ENDMDL
MODEL 6
REMARK VINA RESULT:    -7.072      2.428      5.407
REMARK INTER + INTRA:          -8.310
REMARK INTER:                  -8.145
REMARK INTRA:                  -0.165
REMARK UNBOUND:                 0.415
REMARK  Name = ZINC000575957385
REMARK                            x       y       z     vdW  Elec       q    Type
REMARK                         _______ _______ _______ _____ _____    ______ ____
ROOT
ATOM      1  C   LIG    1       32.477 -19.814   2.197  0.00  0.00    +0.320 C 
ENDROOT
BRANCH   1   2
ATOM      2  N   LIG    1       31.927 -18.764   1.337  0.00  0.00    -0.710 N 
ATOM      3  H   LIG    1       31.823 -17.861   1.678  0.00  0.00    +0.400 HD
ATOM      4  C   LIG    1       31.563 -19.050   0.071  0.00  0.00    +0.560 C 
ATOM      5  O   LIG    1       31.776 -20.156  -0.386  0.00  0.00    -0.510 OA
BRANCH   4   6
ATOM      6  C   LIG    1       30.905 -18.018  -0.763  0.00  0.00    -0.140 A 
ATOM      7  C   LIG    1       31.631 -17.273  -1.699  0.00  0.00    +0.070 A 
ATOM      8  C   LIG    1       30.946 -16.324  -2.443  0.00  0.00    +0.210 A 
ATOM      9  N   LIG    1       29.653 -16.149  -2.255  0.00  0.00    -0.220 NA
ATOM     10  N   LIG    1       28.982 -16.829  -1.398  0.00  0.00    -0.240 NA
ATOM     11  C   LIG    1       29.536 -17.758  -0.645  0.00  0.00    +0.130 A 
ATOM     12  C   LIG    1       28.702 -18.527   0.346  0.00  0.00    +0.160 C 
ENDBRANCH   4   6
ENDBRANCH   1   2
BRANCH   1  13
ATOM     13  C   LIG    1       31.664 -19.892   3.491  0.00  0.00    -0.110 C 
ATOM     14  C   LIG    1       32.037 -18.927   4.619  0.00  0.00    +0.040 C 
ATOM     15  C   LIG    1       32.374 -20.415   4.741  0.00  0.00    +0.050 C 
BRANCH  13  20
ATOM     16  C   LIG    1       26.076 -21.210   2.845  0.00  0.00    +0.090 C 
ATOM     17  C   LIG    1       27.533 -20.866   3.013  0.00  0.00    -0.080 A 
ATOM     18  C   LIG    1       27.898 -19.695   3.650  0.00  0.00    +0.000 A 
ATOM     19  C   LIG    1       29.234 -19.379   3.805  0.00  0.00    +0.010 A 
ATOM     20  C   LIG    1       30.207 -20.235   3.323  0.00  0.00    -0.060 A 
ATOM     21  C   LIG    1       29.842 -21.408   2.686  0.00  0.00    -0.070 A 
ATOM     22  C   LIG    1       30.903 -22.342   2.162  0.00  0.00    +0.090 C 
ATOM     23  C   LIG    1       28.505 -21.725   2.535  0.00  0.00    +0.000 A 
ENDBRANCH  13  20
ENDBRANCH   1  13
TORSDOF 4
ENDMDL
MODEL 7
REMARK VINA RESULT:    -7.064      2.217      3.197
REMARK INTER + INTRA:          -8.301
REMARK INTER:                  -7.636
REMARK INTRA:                  -0.665
REMARK UNBOUND:                 0.415
REMARK  Name = ZINC000575957385
REMARK                            x       y       z     vdW  Elec       q    Type
REMARK                         _______ _______ _______ _____ _____    ______ ____
ROOT
ATOM      1  C   LIG    1       31.451 -19.398   2.322  0.00  0.00    +0.320 C 
ENDROOT
BRANCH   1   2
ATOM      2  N   LIG    1       31.406 -20.847   2.527  0.00  0.00    -0.710 N 
ATOM      3  H   LIG    1       31.068 -21.210   3.361  0.00  0.00    +0.400 HD
ATOM      4  C   LIG    1       31.836 -21.679   1.557  0.00  0.00    +0.560 C 
ATOM      5  O   LIG    1       32.173 -21.231   0.478  0.00  0.00    -0.510 OA
BRANCH   4   6
ATOM      6  C   LIG    1       31.895 -23.138   1.804  0.00  0.00    -0.140 A 
ATOM      7  C   LIG    1       33.102 -23.768   2.135  0.00  0.00    +0.070 A 
ATOM      8  C   LIG    1       33.079 -25.137   2.352  0.00  0.00    +0.210 A 
ATOM      9  N   LIG    1       31.945 -25.802   2.243  0.00  0.00    -0.220 NA
ATOM     10  N   LIG    1       30.837 -25.231   1.939  0.00  0.00    -0.240 NA
ATOM     11  C   LIG    1       30.749 -23.934   1.718  0.00  0.00    +0.130 A 
ATOM     12  C   LIG    1       29.422 -23.314   1.365  0.00  0.00    +0.160 C 
ENDBRANCH   4   6
ENDBRANCH   1   2
BRANCH   1  13
ATOM     13  C   LIG    1       30.157 -18.769   2.841  0.00  0.00    -0.110 C 
ATOM     14  C   LIG    1       30.134 -17.250   3.029  0.00  0.00    +0.040 C 
ATOM     15  C   LIG    1       30.175 -18.173   4.249  0.00  0.00    +0.050 C 
BRANCH  13  20
ATOM     16  C   LIG    1       25.274 -21.307   1.078  0.00  0.00    +0.090 C 
ATOM     17  C   LIG    1       26.547 -20.645   1.538  0.00  0.00    -0.080 A 
ATOM     18  C   LIG    1       26.947 -20.757   2.857  0.00  0.00    +0.000 A 
ATOM     19  C   LIG    1       28.115 -20.149   3.278  0.00  0.00    +0.010 A 
ATOM     20  C   LIG    1       28.883 -19.431   2.381  0.00  0.00    -0.060 A 
ATOM     21  C   LIG    1       28.484 -19.320   1.062  0.00  0.00    -0.070 A 
ATOM     22  C   LIG    1       29.323 -18.538   0.084  0.00  0.00    +0.090 C 
ATOM     23  C   LIG    1       27.318 -19.930   0.639  0.00  0.00    +0.000 A 
ENDBRANCH  13  20
ENDBRANCH   1  13
TORSDOF 4
ENDMDL
MODEL 8
REMARK VINA RESULT:    -7.042      1.554      2.621
REMARK INTER + INTRA:          -8.274
REMARK INTER:                  -8.255
REMARK INTRA:                  -0.019
REMARK UNBOUND:                 0.415
REMARK  Name = ZINC000575957385
REMARK                            x       y       z     vdW  Elec       q    Type
REMARK                         _______ _______ _______ _____ _____    ______ ____
ROOT
ATOM      1  C   LIG    1       31.424 -19.387   2.007  0.00  0.00    +0.320 C 
ENDROOT
BRANCH   1   2
ATOM      2  N   LIG    1       32.191 -20.172   2.976  0.00  0.00    -0.710 N 
ATOM      3  H   LIG    1       32.835 -19.735   3.555  0.00  0.00    +0.400 HD
ATOM      4  C   LIG    1       32.003 -21.504   3.064  0.00  0.00    +0.560 C 
ATOM      5  O   LIG    1       31.134 -22.040   2.404  0.00  0.00    -0.510 OA
BRANCH   4   6
ATOM      6  C   LIG    1       32.856 -22.316   3.964  0.00  0.00    -0.140 A 
ATOM      7  C   LIG    1       32.855 -22.103   5.348  0.00  0.00    +0.070 A 
ATOM      8  C   LIG    1       33.679 -22.901   6.125  0.00  0.00    +0.210 A 
ATOM      9  N   LIG    1       34.429 -23.824   5.556  0.00  0.00    -0.220 NA
ATOM     10  N   LIG    1       34.435 -24.023   4.288  0.00  0.00    -0.240 NA
ATOM     11  C   LIG    1       33.685 -23.322   3.461  0.00  0.00    +0.130 A 
ATOM     12  C   LIG    1       33.729 -23.597   1.980  0.00  0.00    +0.160 C 
ENDBRANCH   4   6
ENDBRANCH   1   2
BRANCH   1  13
ATOM     13  C   LIG    1       30.172 -18.824   2.683  0.00  0.00    -0.110 C 
ATOM     14  C   LIG    1       30.152 -17.326   2.999  0.00  0.00    +0.040 C 
ATOM     15  C   LIG    1       30.305 -18.346   4.130  0.00  0.00    +0.050 C 
BRANCH  13  20
ATOM     16  C   LIG    1       25.181 -21.286   1.128  0.00  0.00    +0.090 C 
ATOM     17  C   LIG    1       26.483 -20.644   1.534  0.00  0.00    -0.080 A 
ATOM     18  C   LIG    1       26.966 -20.811   2.818  0.00  0.00    +0.000 A 
ATOM     19  C   LIG    1       28.159 -20.222   3.190  0.00  0.00    +0.010 A 
ATOM     20  C   LIG    1       28.871 -19.466   2.278  0.00  0.00    -0.060 A 
ATOM     21  C   LIG    1       28.389 -19.299   0.992  0.00  0.00    -0.070 A 
ATOM     22  C   LIG    1       29.165 -18.476  -0.003  0.00  0.00    +0.090 C 
ATOM     23  C   LIG    1       27.196 -19.891   0.619  0.00  0.00    +0.000 A 
ENDBRANCH  13  20
ENDBRANCH   1  13
TORSDOF 4
ENDMDL
MODEL 9
REMARK VINA RESULT:    -6.917      3.017      5.293
REMARK INTER + INTRA:          -8.119
REMARK INTER:                  -7.371
REMARK INTRA:                  -0.748
REMARK UNBOUND:                 0.415
REMARK  Name = ZINC000575957385
REMARK                            x       y       z     vdW  Elec       q    Type
REMARK                         _______ _______ _______ _____ _____    ______ ____
ROOT
ATOM      1  C   LIG    1       31.482 -20.976  -0.058  0.00  0.00    +0.320 C 
ENDROOT
BRANCH   1   2
ATOM      2  N   LIG    1       31.556 -19.522  -0.214  0.00  0.00    -0.710 N 
ATOM      3  H   LIG    1       30.782 -19.027  -0.527  0.00  0.00    +0.400 HD
ATOM      4  C   LIG    1       32.699 -18.869   0.074  0.00  0.00    +0.560 C 
ATOM      5  O   LIG    1       33.640 -19.474   0.551  0.00  0.00    -0.510 OA
BRANCH   4   6
ATOM      6  C   LIG    1       32.811 -17.416  -0.189  0.00  0.00    -0.140 A 
ATOM      7  C   LIG    1       33.461 -16.935  -1.333  0.00  0.00    +0.070 A 
ATOM      8  C   LIG    1       33.526 -15.562  -1.511  0.00  0.00    +0.210 A 
ATOM      9  N   LIG    1       32.984 -14.756  -0.619  0.00  0.00    -0.220 NA
ATOM     10  N   LIG    1       32.388 -15.191   0.431  0.00  0.00    -0.240 NA
ATOM     11  C   LIG    1       32.267 -16.477   0.692  0.00  0.00    +0.130 A 
ATOM     12  C   LIG    1       31.556 -16.934   1.939  0.00  0.00    +0.160 C 
ENDBRANCH   4   6
ENDBRANCH   1   2
BRANCH   1  13
ATOM     13  C   LIG    1       30.260 -21.337   0.789  0.00  0.00    -0.110 C 
ATOM     14  C   LIG    1       29.822 -22.803   0.809  0.00  0.00    +0.040 C 
ATOM     15  C   LIG    1       28.991 -21.766   0.050  0.00  0.00    +0.050 C 
BRANCH  13  20
ATOM     16  C   LIG    1       29.617 -18.297   5.660  0.00  0.00    +0.090 C 
ATOM     17  C   LIG    1       29.785 -19.090   4.390  0.00  0.00    -0.080 A 
ATOM     18  C   LIG    1       28.847 -18.983   3.380  0.00  0.00    +0.000 A 
ATOM     19  C   LIG    1       29.001 -19.710   2.215  0.00  0.00    +0.010 A 
ATOM     20  C   LIG    1       30.092 -20.544   2.059  0.00  0.00    -0.060 A 
ATOM     21  C   LIG    1       31.031 -20.650   3.069  0.00  0.00    -0.070 A 
ATOM     22  C   LIG    1       32.222 -21.558   2.898  0.00  0.00    +0.090 C 
ATOM     23  C   LIG    1       30.879 -19.920   4.233  0.00  0.00    +0.000 A 
ENDBRANCH  13  20
ENDBRANCH   1  13
TORSDOF 4
ENDMDL
