MODEL 1
REMARK VINA RESULT:    -7.621      0.000      0.000
REMARK INTER + INTRA:          -8.675
REMARK INTER:                  -9.849
REMARK INTRA:                   1.174
REMARK UNBOUND:                 1.174
REMARK  Name = ZINC000488675918
REMARK                            x       y       z     vdW  Elec       q    Type
REMARK                         _______ _______ _______ _____ _____    ______ ____
ROOT
ATOM      1  N   LIG    1       32.002 -18.989   0.996  0.00  0.00    -0.710 N 
ATOM      2  H   LIG    1       32.623 -18.245   1.039  0.00  0.00    +0.410 HD
ENDROOT
BRANCH   1   3
ATOM      3  C   LIG    1       32.169 -20.080   1.841  0.00  0.00    +0.360 A 
ATOM      4  C   LIG    1       32.288 -21.365   1.308  0.00  0.00    +0.190 A 
ATOM      5  N   LIG    1       32.446 -22.402   2.109  0.00  0.00    -0.400 NA
ATOM      6  C   LIG    1       32.493 -22.228   3.419  0.00  0.00    +0.220 A 
ATOM      7  C   LIG    1       32.376 -20.950   3.958  0.00  0.00    +0.080 A 
ATOM      8  N   LIG    1       32.222 -19.902   3.152  0.00  0.00    -0.480 NA
BRANCH   7   9
ATOM      9  C   LIG    1       32.429 -20.757   5.425  0.00  0.00    +0.580 C 
ATOM     10  O   LIG    1       32.705 -21.690   6.152  0.00  0.00    -0.530 OA
ATOM     11  N   LIG    1       32.172 -19.544   5.954  0.00  0.00    -0.830 N 
ATOM     12  H   LIG    1       32.206 -19.417   6.915  0.00  0.00    +0.410 HD
ATOM     13  H   LIG    1       31.951 -18.798   5.374  0.00  0.00    +0.410 HD
ENDBRANCH   7   9
ENDBRANCH   1   3
BRANCH   1  14
ATOM     14  C   LIG    1       30.892 -18.965   0.043  0.00  0.00    +0.270 C 
BRANCH  14  15
ATOM     15  C   LIG    1       29.748 -18.123   0.612  0.00  0.00    -0.030 C 
ATOM     16  C   LIG    1       30.299 -17.160   1.666  0.00  0.00    +0.050 C 
ATOM     17  C   LIG    1       29.093 -17.323  -0.516  0.00  0.00    +0.040 C 
BRANCH  15  22
ATOM     18  C   LIG    1       25.822 -21.596   3.045  0.00  0.00    +0.090 C 
ATOM     19  C   LIG    1       26.846 -20.690   2.411  0.00  0.00    -0.080 A 
ATOM     20  C   LIG    1       26.939 -20.609   1.034  0.00  0.00    +0.000 A 
ATOM     21  C   LIG    1       27.878 -19.778   0.452  0.00  0.00    +0.000 A 
ATOM     22  C   LIG    1       28.724 -19.029   1.247  0.00  0.00    -0.080 A 
ATOM     23  C   LIG    1       28.630 -19.108   2.624  0.00  0.00    -0.070 A 
ATOM     24  C   LIG    1       29.553 -18.290   3.491  0.00  0.00    +0.090 C 
ATOM     25  C   LIG    1       27.689 -19.936   3.206  0.00  0.00    +0.000 A 
ENDBRANCH  15  22
ENDBRANCH  14  15
ENDBRANCH   1  14
TORSDOF 5
ENDMDL
MODEL 2
REMARK VINA RESULT:    -7.465      2.058      3.246
REMARK INTER + INTRA:          -8.472
REMARK INTER:                  -8.632
REMARK INTRA:                   0.160
REMARK UNBOUND:                 1.174
REMARK  Name = ZINC000488675918
REMARK                            x       y       z     vdW  Elec       q    Type
REMARK                         _______ _______ _______ _____ _____    ______ ____
ROOT
ATOM      1  N   LIG    1       32.327 -19.803   2.361  0.00  0.00    -0.710 N 
ATOM      2  H   LIG    1       32.799 -19.566   3.175  0.00  0.00    +0.410 HD
ENDROOT
BRANCH   1   3
ATOM      3  C   LIG    1       32.344 -21.115   1.905  0.00  0.00    +0.360 A 
ATOM      4  C   LIG    1       33.557 -21.722   1.570  0.00  0.00    +0.190 A 
ATOM      5  N   LIG    1       33.574 -22.969   1.137  0.00  0.00    -0.400 NA
ATOM      6  C   LIG    1       32.446 -23.648   1.019  0.00  0.00    +0.220 A 
ATOM      7  C   LIG    1       31.234 -23.049   1.353  0.00  0.00    +0.080 A 
ATOM      8  N   LIG    1       31.213 -21.794   1.795  0.00  0.00    -0.480 NA
BRANCH   7   9
ATOM      9  C   LIG    1       29.970 -23.811   1.220  0.00  0.00    +0.580 C 
ATOM     10  O   LIG    1       28.907 -23.270   1.454  0.00  0.00    -0.530 OA
ATOM     11  N   LIG    1       30.000 -25.103   0.839  0.00  0.00    -0.830 N 
ATOM     12  H   LIG    1       29.173 -25.602   0.753  0.00  0.00    +0.410 HD
ATOM     13  H   LIG    1       30.848 -25.535   0.652  0.00  0.00    +0.410 HD
ENDBRANCH   7   9
ENDBRANCH   1   3
BRANCH   1  14
ATOM     14  C   LIG    1       31.599 -18.777   1.612  0.00  0.00    +0.270 C 
BRANCH  14  15
ATOM     15  C   LIG    1       30.445 -18.245   2.464  0.00  0.00    -0.030 C 
ATOM     16  C   LIG    1       30.784 -18.418   3.946  0.00  0.00    +0.050 C 
ATOM     17  C   LIG    1       30.229 -16.761   2.161  0.00  0.00    +0.040 C 
BRANCH  15  22
ATOM     18  C   LIG    1       25.624 -21.187   1.239  0.00  0.00    +0.090 C 
ATOM     19  C   LIG    1       26.881 -20.420   1.558  0.00  0.00    -0.080 A 
ATOM     20  C   LIG    1       27.389 -20.429   2.844  0.00  0.00    +0.000 A 
ATOM     21  C   LIG    1       28.543 -19.726   3.137  0.00  0.00    +0.000 A 
ATOM     22  C   LIG    1       29.188 -19.012   2.145  0.00  0.00    -0.080 A 
ATOM     23  C   LIG    1       28.681 -19.004   0.858  0.00  0.00    -0.070 A 
ATOM     24  C   LIG    1       29.385 -18.227  -0.224  0.00  0.00    +0.090 C 
ATOM     25  C   LIG    1       27.529 -19.710   0.565  0.00  0.00    +0.000 A 
ENDBRANCH  15  22
ENDBRANCH  14  15
ENDBRANCH   1  14
TORSDOF 5
ENDMDL
MODEL 3
REMARK VINA RESULT:    -7.441      2.496      2.893
REMARK INTER + INTRA:          -8.441
REMARK INTER:                  -8.681
REMARK INTRA:                   0.239
REMARK UNBOUND:                 1.174
REMARK  Name = ZINC000488675918
REMARK                            x       y       z     vdW  Elec       q    Type
REMARK                         _______ _______ _______ _____ _____    ______ ____
ROOT
ATOM      1  N   LIG    1       31.640 -19.399  -0.183  0.00  0.00    -0.710 N 
ATOM      2  H   LIG    1       31.542 -19.150  -1.115  0.00  0.00    +0.410 HD
ENDROOT
BRANCH   1   3
ATOM      3  C   LIG    1       31.889 -20.723   0.159  0.00  0.00    +0.360 A 
ATOM      4  C   LIG    1       33.203 -21.191   0.229  0.00  0.00    +0.190 A 
ATOM      5  N   LIG    1       33.441 -22.448   0.554  0.00  0.00    -0.400 NA
ATOM      6  C   LIG    1       32.438 -23.268   0.814  0.00  0.00    +0.220 A 
ATOM      7  C   LIG    1       31.125 -22.809   0.747  0.00  0.00    +0.080 A 
ATOM      8  N   LIG    1       30.882 -21.540   0.426  0.00  0.00    -0.480 NA
BRANCH   7   9
ATOM      9  C   LIG    1       30.002 -23.729   1.039  0.00  0.00    +0.580 C 
ATOM     10  O   LIG    1       28.935 -23.286   1.415  0.00  0.00    -0.530 OA
ATOM     11  N   LIG    1       30.164 -25.058   0.884  0.00  0.00    -0.830 N 
ATOM     12  H   LIG    1       29.428 -25.662   1.075  0.00  0.00    +0.410 HD
ATOM     13  H   LIG    1       31.015 -25.412   0.583  0.00  0.00    +0.410 HD
ENDBRANCH   7   9
ENDBRANCH   1   3
BRANCH   1  14
ATOM     14  C   LIG    1       31.525 -18.382   0.864  0.00  0.00    +0.270 C 
BRANCH  14  15
ATOM     15  C   LIG    1       30.137 -17.743   0.804  0.00  0.00    -0.030 C 
ATOM     16  C   LIG    1       30.142 -16.435   1.598  0.00  0.00    +0.050 C 
ATOM     17  C   LIG    1       29.771 -17.452  -0.653  0.00  0.00    +0.040 C 
BRANCH  15  22
ATOM     18  C   LIG    1       26.248 -21.360   3.082  0.00  0.00    +0.090 C 
ATOM     19  C   LIG    1       27.262 -20.417   2.489  0.00  0.00    -0.080 A 
ATOM     20  C   LIG    1       27.250 -20.153   1.131  0.00  0.00    +0.000 A 
ATOM     21  C   LIG    1       28.180 -19.288   0.586  0.00  0.00    +0.000 A 
ATOM     22  C   LIG    1       29.123 -18.686   1.399  0.00  0.00    -0.080 A 
ATOM     23  C   LIG    1       29.134 -18.947   2.756  0.00  0.00    -0.070 A 
ATOM     24  C   LIG    1       30.161 -18.290   3.642  0.00  0.00    +0.090 C 
ATOM     25  C   LIG    1       28.202 -19.810   3.302  0.00  0.00    +0.000 A 
ENDBRANCH  15  22
ENDBRANCH  14  15
ENDBRANCH   1  14
TORSDOF 5
ENDMDL
MODEL 4
REMARK VINA RESULT:    -7.186      4.251      6.359
REMARK INTER + INTRA:          -8.112
REMARK INTER:                  -8.697
REMARK INTRA:                   0.586
REMARK UNBOUND:                 1.174
REMARK  Name = ZINC000488675918
REMARK                            x       y       z     vdW  Elec       q    Type
REMARK                         _______ _______ _______ _____ _____    ______ ____
ROOT
ATOM      1  N   LIG    1       29.429 -17.435  -0.708  0.00  0.00    -0.710 N 
ATOM      2  H   LIG    1       28.736 -16.919  -0.265  0.00  0.00    +0.410 HD
ENDROOT
BRANCH   1   3
ATOM      3  C   LIG    1       30.183 -16.856  -1.722  0.00  0.00    +0.360 A 
ATOM      4  C   LIG    1       31.572 -16.777  -1.602  0.00  0.00    +0.190 A 
ATOM      5  N   LIG    1       32.289 -16.227  -2.565  0.00  0.00    -0.400 NA
ATOM      6  C   LIG    1       31.695 -15.751  -3.645  0.00  0.00    +0.220 A 
ATOM      7  C   LIG    1       30.311 -15.828  -3.773  0.00  0.00    +0.080 A 
ATOM      8  N   LIG    1       29.586 -16.386  -2.806  0.00  0.00    -0.480 NA
BRANCH   7   9
ATOM      9  C   LIG    1       29.648 -15.293  -4.984  0.00  0.00    +0.580 C 
ATOM     10  O   LIG    1       29.813 -14.133  -5.306  0.00  0.00    -0.530 OA
ATOM     11  N   LIG    1       28.862 -16.094  -5.730  0.00  0.00    -0.830 N 
ATOM     12  H   LIG    1       28.427 -15.745  -6.524  0.00  0.00    +0.410 HD
ATOM     13  H   LIG    1       28.730 -17.021  -5.474  0.00  0.00    +0.410 HD
ENDBRANCH   7   9
ENDBRANCH   1   3
BRANCH   1  14
ATOM     14  C   LIG    1       29.681 -18.820  -0.308  0.00  0.00    +0.270 C 
BRANCH  14  15
ATOM     15  C   LIG    1       29.696 -18.916   1.219  0.00  0.00    -0.030 C 
ATOM     16  C   LIG    1       30.939 -19.687   1.669  0.00  0.00    +0.050 C 
ATOM     17  C   LIG    1       29.725 -17.508   1.817  0.00  0.00    +0.040 C 
BRANCH  15  22
ATOM     18  C   LIG    1       24.955 -21.683   3.026  0.00  0.00    +0.090 C 
ATOM     19  C   LIG    1       26.191 -20.961   2.555  0.00  0.00    -0.080 A 
ATOM     20  C   LIG    1       26.390 -20.739   1.205  0.00  0.00    +0.000 A 
ATOM     21  C   LIG    1       27.524 -20.077   0.772  0.00  0.00    +0.000 A 
ATOM     22  C   LIG    1       28.460 -19.638   1.690  0.00  0.00    -0.080 A 
ATOM     23  C   LIG    1       28.260 -19.858   3.040  0.00  0.00    -0.070 A 
ATOM     24  C   LIG    1       29.280 -19.378   4.041  0.00  0.00    +0.090 C 
ATOM     25  C   LIG    1       27.125 -20.517   3.473  0.00  0.00    +0.000 A 
ENDBRANCH  15  22
ENDBRANCH  14  15
ENDBRANCH   1  14
TORSDOF 5
ENDMDL
MODEL 5
REMARK VINA RESULT:    -7.160      3.310      4.986
REMARK INTER + INTRA:          -8.079
REMARK INTER:                  -9.146
REMARK INTRA:                   1.067
REMARK UNBOUND:                 1.174
REMARK  Name = ZINC000488675918
REMARK                            x       y       z     vdW  Elec       q    Type
REMARK                         _______ _______ _______ _____ _____    ______ ____
ROOT
ATOM      1  N   LIG    1       31.839 -17.463   2.313  0.00  0.00    -0.710 N 
ATOM      2  H   LIG    1       32.279 -17.423   3.177  0.00  0.00    +0.410 HD
ENDROOT
BRANCH   1   3
ATOM      3  C   LIG    1       32.584 -17.319   1.149  0.00  0.00    +0.360 A 
ATOM      4  C   LIG    1       33.293 -18.407   0.635  0.00  0.00    +0.190 A 
ATOM      5  N   LIG    1       34.001 -18.272  -0.471  0.00  0.00    -0.400 NA
ATOM      6  C   LIG    1       34.041 -17.108  -1.096  0.00  0.00    +0.220 A 
ATOM      7  C   LIG    1       33.335 -16.020  -0.590  0.00  0.00    +0.080 A 
ATOM      8  N   LIG    1       32.616 -16.154   0.522  0.00  0.00    -0.480 NA
BRANCH   7   9
ATOM      9  C   LIG    1       33.381 -14.716  -1.292  0.00  0.00    +0.580 C 
ATOM     10  O   LIG    1       33.086 -13.697  -0.700  0.00  0.00    -0.530 OA
ATOM     11  N   LIG    1       33.751 -14.661  -2.586  0.00  0.00    -0.830 N 
ATOM     12  H   LIG    1       33.781 -13.807  -3.046  0.00  0.00    +0.410 HD
ATOM     13  H   LIG    1       33.988 -15.474  -3.059  0.00  0.00    +0.410 HD
ENDBRANCH   7   9
ENDBRANCH   1   3
BRANCH   1  14
ATOM     14  C   LIG    1       30.392 -17.674   2.237  0.00  0.00    +0.270 C 
BRANCH  14  15
ATOM     15  C   LIG    1       30.002 -18.863   3.117  0.00  0.00    -0.030 C 
ATOM     16  C   LIG    1       31.134 -19.892   3.115  0.00  0.00    +0.050 C 
ATOM     17  C   LIG    1       29.757 -18.379   4.548  0.00  0.00    +0.040 C 
BRANCH  15  22
ATOM     18  C   LIG    1       25.184 -21.296   1.052  0.00  0.00    +0.090 C 
ATOM     19  C   LIG    1       26.441 -20.661   1.590  0.00  0.00    -0.080 A 
ATOM     20  C   LIG    1       26.763 -20.791   2.929  0.00  0.00    +0.000 A 
ATOM     21  C   LIG    1       27.915 -20.209   3.423  0.00  0.00    +0.000 A 
ATOM     22  C   LIG    1       28.746 -19.497   2.578  0.00  0.00    -0.080 A 
ATOM     23  C   LIG    1       28.426 -19.369   1.239  0.00  0.00    -0.070 A 
ATOM     24  C   LIG    1       29.332 -18.593   0.319  0.00  0.00    +0.090 C 
ATOM     25  C   LIG    1       27.275 -19.953   0.745  0.00  0.00    +0.000 A 
ENDBRANCH  15  22
ENDBRANCH  14  15
ENDBRANCH   1  14
TORSDOF 5
ENDMDL
MODEL 6
REMARK VINA RESULT:    -7.155      2.917      4.001
REMARK INTER + INTRA:          -8.072
REMARK INTER:                  -8.545
REMARK INTRA:                   0.473
REMARK UNBOUND:                 1.174
REMARK  Name = ZINC000488675918
REMARK                            x       y       z     vdW  Elec       q    Type
REMARK                         _______ _______ _______ _____ _____    ______ ____
ROOT
ATOM      1  N   LIG    1       31.632 -19.081  -0.440  0.00  0.00    -0.710 N 
ATOM      2  H   LIG    1       31.465 -18.659  -1.297  0.00  0.00    +0.410 HD
ENDROOT
BRANCH   1   3
ATOM      3  C   LIG    1       32.010 -20.417  -0.387  0.00  0.00    +0.360 A 
ATOM      4  C   LIG    1       32.149 -21.055   0.847  0.00  0.00    +0.190 A 
ATOM      5  N   LIG    1       32.508 -22.325   0.899  0.00  0.00    -0.400 NA
ATOM      6  C   LIG    1       32.736 -22.996  -0.216  0.00  0.00    +0.220 A 
ATOM      7  C   LIG    1       32.599 -22.367  -1.450  0.00  0.00    +0.080 A 
ATOM      8  N   LIG    1       32.232 -21.088  -1.506  0.00  0.00    -0.480 NA
BRANCH   7   9
ATOM      9  C   LIG    1       32.856 -23.121  -2.700  0.00  0.00    +0.580 C 
ATOM     10  O   LIG    1       33.048 -22.525  -3.741  0.00  0.00    -0.530 OA
ATOM     11  N   LIG    1       32.876 -24.468  -2.680  0.00  0.00    -0.830 N 
ATOM     12  H   LIG    1       33.044 -24.962  -3.498  0.00  0.00    +0.410 HD
ATOM     13  H   LIG    1       32.723 -24.945  -1.849  0.00  0.00    +0.410 HD
ENDBRANCH   7   9
ENDBRANCH   1   3
BRANCH   1  14
ATOM     14  C   LIG    1       31.488 -18.311   0.797  0.00  0.00    +0.270 C 
BRANCH  14  15
ATOM     15  C   LIG    1       30.101 -17.667   0.839  0.00  0.00    -0.030 C 
ATOM     16  C   LIG    1       30.146 -16.413   1.714  0.00  0.00    +0.050 C 
ATOM     17  C   LIG    1       29.675 -17.282  -0.580  0.00  0.00    +0.040 C 
BRANCH  15  22
ATOM     18  C   LIG    1       26.297 -21.419   3.042  0.00  0.00    +0.090 C 
ATOM     19  C   LIG    1       27.289 -20.440   2.468  0.00  0.00    -0.080 A 
ATOM     20  C   LIG    1       27.306 -20.190   1.108  0.00  0.00    +0.000 A 
ATOM     21  C   LIG    1       28.216 -19.293   0.581  0.00  0.00    +0.000 A 
ATOM     22  C   LIG    1       29.109 -18.645   1.414  0.00  0.00    -0.080 A 
ATOM     23  C   LIG    1       29.092 -18.893   2.773  0.00  0.00    -0.070 A 
ATOM     24  C   LIG    1       30.065 -18.187   3.681  0.00  0.00    +0.090 C 
ATOM     25  C   LIG    1       28.179 -19.789   3.301  0.00  0.00    +0.000 A 
ENDBRANCH  15  22
ENDBRANCH  14  15
ENDBRANCH   1  14
TORSDOF 5
ENDMDL
MODEL 7
REMARK VINA RESULT:    -7.153      1.684      3.373
REMARK INTER + INTRA:          -8.069
REMARK INTER:                  -8.669
REMARK INTRA:                   0.600
REMARK UNBOUND:                 1.174
REMARK  Name = ZINC000488675918
REMARK                            x       y       z     vdW  Elec       q    Type
REMARK                         _______ _______ _______ _____ _____    ______ ____
ROOT
ATOM      1  N   LIG    1       29.906 -21.822   1.602  0.00  0.00    -0.710 N 
ATOM      2  H   LIG    1       30.029 -21.311   0.786  0.00  0.00    +0.410 HD
ENDROOT
BRANCH   1   3
ATOM      3  C   LIG    1       31.003 -22.406   2.225  0.00  0.00    +0.360 A 
ATOM      4  C   LIG    1       31.706 -23.429   1.586  0.00  0.00    +0.190 A 
ATOM      5  N   LIG    1       32.748 -23.985   2.177  0.00  0.00    -0.400 NA
ATOM      6  C   LIG    1       33.128 -23.576   3.375  0.00  0.00    +0.220 A 
ATOM      7  C   LIG    1       32.431 -22.556   4.018  0.00  0.00    +0.080 A 
ATOM      8  N   LIG    1       31.384 -21.990   3.422  0.00  0.00    -0.480 NA
BRANCH   7   9
ATOM      9  C   LIG    1       32.858 -22.099   5.361  0.00  0.00    +0.580 C 
ATOM     10  O   LIG    1       32.338 -21.124   5.865  0.00  0.00    -0.530 OA
ATOM     11  N   LIG    1       33.824 -22.767   6.023  0.00  0.00    -0.830 N 
ATOM     12  H   LIG    1       34.104 -22.468   6.903  0.00  0.00    +0.410 HD
ATOM     13  H   LIG    1       34.240 -23.545   5.621  0.00  0.00    +0.410 HD
ENDBRANCH   7   9
ENDBRANCH   1   3
BRANCH   1  14
ATOM     14  C   LIG    1       28.568 -21.977   2.176  0.00  0.00    +0.270 C 
BRANCH  14  15
ATOM     15  C   LIG    1       27.692 -20.796   1.755  0.00  0.00    -0.030 C 
ATOM     16  C   LIG    1       27.143 -21.043   0.349  0.00  0.00    +0.050 C 
ATOM     17  C   LIG    1       26.529 -20.649   2.738  0.00  0.00    +0.040 C 
BRANCH  15  22
ATOM     18  C   LIG    1       30.846 -15.953   1.764  0.00  0.00    +0.090 C 
ATOM     19  C   LIG    1       30.023 -17.216   1.762  0.00  0.00    -0.080 A 
ATOM     20  C   LIG    1       29.544 -17.727   0.570  0.00  0.00    +0.000 A 
ATOM     21  C   LIG    1       28.790 -18.886   0.568  0.00  0.00    +0.000 A 
ATOM     22  C   LIG    1       28.515 -19.533   1.758  0.00  0.00    -0.080 A 
ATOM     23  C   LIG    1       28.996 -19.024   2.950  0.00  0.00    -0.070 A 
ATOM     24  C   LIG    1       28.696 -19.730   4.247  0.00  0.00    +0.090 C 
ATOM     25  C   LIG    1       29.753 -17.867   2.951  0.00  0.00    +0.000 A 
ENDBRANCH  15  22
ENDBRANCH  14  15
ENDBRANCH   1  14
TORSDOF 5
ENDMDL
MODEL 8
REMARK VINA RESULT:    -7.005      1.762      2.618
REMARK INTER + INTRA:          -7.879
REMARK INTER:                  -8.579
REMARK INTRA:                   0.700
REMARK UNBOUND:                 1.174
REMARK  Name = ZINC000488675918
REMARK                            x       y       z     vdW  Elec       q    Type
REMARK                         _______ _______ _______ _____ _____    ______ ____
ROOT
ATOM      1  N   LIG    1       31.047 -21.088   2.741  0.00  0.00    -0.710 N 
ATOM      2  H   LIG    1       30.173 -21.428   2.493  0.00  0.00    +0.410 HD
ENDROOT
BRANCH   1   3
ATOM      3  C   LIG    1       32.051 -21.969   3.126  0.00  0.00    +0.360 A 
ATOM      4  C   LIG    1       32.805 -22.634   2.157  0.00  0.00    +0.190 A 
ATOM      5  N   LIG    1       33.759 -23.471   2.520  0.00  0.00    -0.400 NA
ATOM      6  C   LIG    1       34.004 -23.682   3.802  0.00  0.00    +0.220 A 
ATOM      7  C   LIG    1       33.256 -23.022   4.773  0.00  0.00    +0.080 A 
ATOM      8  N   LIG    1       32.298 -22.173   4.410  0.00  0.00    -0.480 NA
BRANCH   7   9
ATOM      9  C   LIG    1       33.532 -23.260   6.209  0.00  0.00    +0.580 C 
ATOM     10  O   LIG    1       34.194 -22.462   6.842  0.00  0.00    -0.530 OA
ATOM     11  N   LIG    1       33.046 -24.363   6.814  0.00  0.00    -0.830 N 
ATOM     12  H   LIG    1       33.227 -24.519   7.754  0.00  0.00    +0.410 HD
ATOM     13  H   LIG    1       32.517 -25.000   6.309  0.00  0.00    +0.410 HD
ENDBRANCH   7   9
ENDBRANCH   1   3
BRANCH   1  14
ATOM     14  C   LIG    1       31.308 -19.648   2.711  0.00  0.00    +0.270 C 
BRANCH  14  15
ATOM     15  C   LIG    1       30.078 -18.895   3.221  0.00  0.00    -0.030 C 
ATOM     16  C   LIG    1       30.020 -18.987   4.747  0.00  0.00    +0.050 C 
ATOM     17  C   LIG    1       30.170 -17.426   2.803  0.00  0.00    +0.040 C 
BRANCH  15  22
ATOM     18  C   LIG    1       25.304 -21.247   0.969  0.00  0.00    +0.090 C 
ATOM     19  C   LIG    1       26.549 -20.633   1.556  0.00  0.00    -0.080 A 
ATOM     20  C   LIG    1       26.817 -20.771   2.906  0.00  0.00    +0.000 A 
ATOM     21  C   LIG    1       27.960 -20.209   3.444  0.00  0.00    +0.000 A 
ATOM     22  C   LIG    1       28.833 -19.508   2.633  0.00  0.00    -0.080 A 
ATOM     23  C   LIG    1       28.566 -19.372   1.284  0.00  0.00    -0.070 A 
ATOM     24  C   LIG    1       29.518 -18.608   0.400  0.00  0.00    +0.090 C 
ATOM     25  C   LIG    1       27.425 -19.937   0.745  0.00  0.00    +0.000 A 
ENDBRANCH  15  22
ENDBRANCH  14  15
ENDBRANCH   1  14
TORSDOF 5
ENDMDL
MODEL 9
REMARK VINA RESULT:    -6.912      2.257      4.331
REMARK INTER + INTRA:          -7.758
REMARK INTER:                  -8.068
REMARK INTRA:                   0.311
REMARK UNBOUND:                 1.174
REMARK  Name = ZINC000488675918
REMARK                            x       y       z     vdW  Elec       q    Type
REMARK                         _______ _______ _______ _____ _____    ______ ____
ROOT
ATOM      1  N   LIG    1       31.974 -20.719   4.128  0.00  0.00    -0.710 N 
ATOM      2  H   LIG    1       32.768 -20.163   4.168  0.00  0.00    +0.410 HD
ENDROOT
BRANCH   1   3
ATOM      3  C   LIG    1       32.026 -21.959   3.503  0.00  0.00    +0.360 A 
ATOM      4  C   LIG    1       33.161 -22.762   3.638  0.00  0.00    +0.190 A 
ATOM      5  N   LIG    1       33.211 -23.940   3.044  0.00  0.00    -0.400 NA
ATOM      6  C   LIG    1       32.190 -24.364   2.321  0.00  0.00    +0.220 A 
ATOM      7  C   LIG    1       31.055 -23.569   2.183  0.00  0.00    +0.080 A 
ATOM      8  N   LIG    1       30.998 -22.383   2.785  0.00  0.00    -0.480 NA
BRANCH   7   9
ATOM      9  C   LIG    1       29.911 -24.045   1.371  0.00  0.00    +0.580 C 
ATOM     10  O   LIG    1       28.938 -23.334   1.215  0.00  0.00    -0.530 OA
ATOM     11  N   LIG    1       29.950 -25.267   0.805  0.00  0.00    -0.830 N 
ATOM     12  H   LIG    1       29.201 -25.580   0.274  0.00  0.00    +0.410 HD
ATOM     13  H   LIG    1       30.726 -25.836   0.929  0.00  0.00    +0.410 HD
ENDBRANCH   7   9
ENDBRANCH   1   3
BRANCH   1  14
ATOM     14  C   LIG    1       30.722 -20.252   4.726  0.00  0.00    +0.270 C 
BRANCH  14  15
ATOM     15  C   LIG    1       30.636 -18.729   4.608  0.00  0.00    -0.030 C 
ATOM     16  C   LIG    1       29.640 -18.193   5.639  0.00  0.00    +0.050 C 
ATOM     17  C   LIG    1       32.015 -18.120   4.869  0.00  0.00    +0.040 C 
BRANCH  15  22
ATOM     18  C   LIG    1       28.869 -17.299  -0.705  0.00  0.00    +0.090 C 
ATOM     19  C   LIG    1       29.330 -17.673   0.681  0.00  0.00    -0.080 A 
ATOM     20  C   LIG    1       30.429 -17.045   1.236  0.00  0.00    +0.000 A 
ATOM     21  C   LIG    1       30.852 -17.387   2.507  0.00  0.00    +0.000 A 
ATOM     22  C   LIG    1       30.175 -18.357   3.223  0.00  0.00    -0.080 A 
ATOM     23  C   LIG    1       29.074 -18.983   2.669  0.00  0.00    -0.070 A 
ATOM     24  C   LIG    1       28.336 -20.039   3.449  0.00  0.00    +0.090 C 
ATOM     25  C   LIG    1       28.650 -18.639   1.399  0.00  0.00    +0.000 A 
ENDBRANCH  15  22
ENDBRANCH  14  15
ENDBRANCH   1  14
TORSDOF 5
ENDMDL
