MODEL 1
REMARK VINA RESULT:    -7.332      0.000      0.000
REMARK INTER + INTRA:          -5.411
REMARK INTER:                  -8.404
REMARK INTRA:                   2.994
REMARK UNBOUND:                 2.994
REMARK  Name = ZINC000870235067
REMARK                            x       y       z     vdW  Elec       q    Type
REMARK                         _______ _______ _______ _____ _____    ______ ____
ROOT
ATOM      1  C   LIG    1       29.866 -20.053   0.389  0.00  0.00    +0.570 C 
ATOM      2  N   LIG    1       30.988 -19.361   0.671  0.00  0.00    -0.640 N 
ATOM      3  C   LIG    1       31.306 -18.001   1.132  0.00  0.00    +0.300 C 
ATOM      4  C   LIG    1       32.591 -18.568   1.749  0.00  0.00    +0.140 C 
ATOM      5  C   LIG    1       32.433 -19.636   0.661  0.00  0.00    +0.260 C 
ATOM      6  O   LIG    1       29.945 -21.171  -0.075  0.00  0.00    -0.530 OA
ENDROOT
BRANCH   1  12
ATOM      7  C   LIG    1       28.014 -21.683  -0.362  0.00  0.00    +0.020 C 
ATOM      8  C   LIG    1       27.402 -20.399   0.205  0.00  0.00    +0.000 C 
ATOM      9  C   LIG    1       26.570 -20.723   1.463  0.00  0.00    +0.020 C 
ATOM     10  C   LIG    1       27.542 -20.458   2.640  0.00  0.00    +0.020 C 
ATOM     11  C   LIG    1       28.322 -19.208   2.162  0.00  0.00    +0.040 C 
ATOM     12  C   LIG    1       28.516 -19.436   0.648  0.00  0.00    -0.080 C 
ATOM     13  C   LIG    1       28.392 -18.108  -0.102  0.00  0.00    +0.050 C 
ENDBRANCH   1  12
BRANCH   4  14
ATOM     14  C   LIG    1       32.426 -19.088   3.154  0.00  0.00    -0.100 A 
ATOM     15  C   LIG    1       32.181 -18.209   4.192  0.00  0.00    +0.020 A 
ATOM     16  C   LIG    1       32.029 -18.686   5.480  0.00  0.00    +0.000 A 
ATOM     17  C   LIG    1       32.122 -20.042   5.731  0.00  0.00    +0.010 A 
ATOM     18  C   LIG    1       32.366 -20.921   4.693  0.00  0.00    +0.010 A 
ATOM     19  C   LIG    1       32.513 -20.445   3.404  0.00  0.00    +0.030 A 
ENDBRANCH   4  14
BRANCH   4  20
ATOM     20  O   LIG    1       33.738 -17.730   1.589  0.00  0.00    -0.530 OA
ATOM     21  H   LIG    1       34.549 -18.211   1.376  0.00  0.00    +0.390 HD
ENDBRANCH   4  20
TORSDOF 3
ENDMDL
MODEL 2
REMARK VINA RESULT:    -7.281      1.699      2.316
REMARK INTER + INTRA:          -5.352
REMARK INTER:                  -7.114
REMARK INTRA:                   1.763
REMARK UNBOUND:                 2.994
REMARK  Name = ZINC000870235067
REMARK                            x       y       z     vdW  Elec       q    Type
REMARK                         _______ _______ _______ _____ _____    ______ ____
ROOT
ATOM      1  C   LIG    1       28.625 -21.689   2.050  0.00  0.00    +0.570 C 
ATOM      2  N   LIG    1       29.905 -21.424   1.720  0.00  0.00    -0.640 N 
ATOM      3  C   LIG    1       30.652 -20.256   1.230  0.00  0.00    +0.300 C 
ATOM      4  C   LIG    1       31.902 -20.842   1.900  0.00  0.00    +0.140 C 
ATOM      5  C   LIG    1       31.171 -22.173   1.699  0.00  0.00    +0.260 C 
ATOM      6  O   LIG    1       28.298 -22.820   2.343  0.00  0.00    -0.530 OA
ENDROOT
BRANCH   1  12
ATOM      7  C   LIG    1       27.520 -21.529  -0.275  0.00  0.00    +0.020 C 
ATOM      8  C   LIG    1       26.936 -20.477   0.671  0.00  0.00    +0.000 C 
ATOM      9  C   LIG    1       25.431 -20.738   0.885  0.00  0.00    +0.020 C 
ATOM     10  C   LIG    1       25.370 -21.559   2.197  0.00  0.00    +0.020 C 
ATOM     11  C   LIG    1       26.479 -20.905   3.060  0.00  0.00    +0.040 C 
ATOM     12  C   LIG    1       27.603 -20.583   2.053  0.00  0.00    -0.080 C 
ATOM     13  C   LIG    1       28.269 -19.254   2.418  0.00  0.00    +0.050 C 
ENDBRANCH   1  12
BRANCH   4  14
ATOM     14  C   LIG    1       32.076 -20.443   3.343  0.00  0.00    -0.100 A 
ATOM     15  C   LIG    1       32.426 -21.392   4.284  0.00  0.00    +0.020 A 
ATOM     16  C   LIG    1       32.585 -21.027   5.608  0.00  0.00    +0.000 A 
ATOM     17  C   LIG    1       32.393 -19.713   5.990  0.00  0.00    +0.010 A 
ATOM     18  C   LIG    1       32.044 -18.764   5.049  0.00  0.00    +0.010 A 
ATOM     19  C   LIG    1       31.889 -19.128   3.724  0.00  0.00    +0.030 A 
ENDBRANCH   4  14
BRANCH   4  20
ATOM     20  O   LIG    1       33.098 -20.705   1.129  0.00  0.00    -0.530 OA
ATOM     21  H   LIG    1       33.838 -21.235   1.454  0.00  0.00    +0.390 HD
ENDBRANCH   4  20
TORSDOF 3
ENDMDL
MODEL 3
REMARK VINA RESULT:    -7.211      1.842      4.964
REMARK INTER + INTRA:          -5.272
REMARK INTER:                  -7.874
REMARK INTRA:                   2.602
REMARK UNBOUND:                 2.994
REMARK  Name = ZINC000870235067
REMARK                            x       y       z     vdW  Elec       q    Type
REMARK                         _______ _______ _______ _____ _____    ______ ____
ROOT
ATOM      1  C   LIG    1       32.445 -18.146   1.460  0.00  0.00    +0.570 C 
ATOM      2  N   LIG    1       31.341 -17.705   0.826  0.00  0.00    -0.640 N 
ATOM      3  C   LIG    1       30.671 -17.985  -0.454  0.00  0.00    +0.300 C 
ATOM      4  C   LIG    1       29.351 -17.567   0.207  0.00  0.00    +0.140 C 
ATOM      5  C   LIG    1       30.269 -16.739   1.111  0.00  0.00    +0.260 C 
ATOM      6  O   LIG    1       32.789 -17.632   2.504  0.00  0.00    -0.530 OA
ENDROOT
BRANCH   1  12
ATOM      7  C   LIG    1       32.190 -20.249   2.932  0.00  0.00    +0.020 C 
ATOM      8  C   LIG    1       33.108 -20.535   1.740  0.00  0.00    +0.000 C 
ATOM      9  C   LIG    1       32.482 -21.622   0.842  0.00  0.00    +0.020 C 
ATOM     10  C   LIG    1       31.746 -20.825  -0.263  0.00  0.00    +0.020 C 
ATOM     11  C   LIG    1       32.708 -19.639  -0.526  0.00  0.00    +0.040 C 
ATOM     12  C   LIG    1       33.252 -19.274   0.872  0.00  0.00    -0.080 C 
ATOM     13  C   LIG    1       34.724 -18.870   0.772  0.00  0.00    +0.050 C 
ENDBRANCH   1  12
BRANCH   4  14
ATOM     14  C   LIG    1       28.632 -18.687   0.915  0.00  0.00    -0.100 A 
ATOM     15  C   LIG    1       28.804 -18.868   2.274  0.00  0.00    +0.020 A 
ATOM     16  C   LIG    1       28.145 -19.895   2.924  0.00  0.00    +0.000 A 
ATOM     17  C   LIG    1       27.314 -20.741   2.214  0.00  0.00    +0.010 A 
ATOM     18  C   LIG    1       27.142 -20.560   0.855  0.00  0.00    +0.010 A 
ATOM     19  C   LIG    1       27.798 -19.530   0.206  0.00  0.00    +0.030 A 
ENDBRANCH   4  14
BRANCH   4  20
ATOM     20  O   LIG    1       28.495 -16.790  -0.633  0.00  0.00    -0.530 OA
ATOM     21  H   LIG    1       28.152 -17.272  -1.398  0.00  0.00    +0.390 HD
ENDBRANCH   4  20
TORSDOF 3
ENDMDL
MODEL 4
REMARK VINA RESULT:    -7.201      1.764      4.918
REMARK INTER + INTRA:          -5.260
REMARK INTER:                  -7.603
REMARK INTRA:                   2.343
REMARK UNBOUND:                 2.994
REMARK  Name = ZINC000870235067
REMARK                            x       y       z     vdW  Elec       q    Type
REMARK                         _______ _______ _______ _____ _____    ______ ____
ROOT
ATOM      1  C   LIG    1       31.729 -19.201   1.837  0.00  0.00    +0.570 C 
ATOM      2  N   LIG    1       31.368 -20.498   1.882  0.00  0.00    -0.640 N 
ATOM      3  C   LIG    1       31.002 -21.461   2.932  0.00  0.00    +0.300 C 
ATOM      4  C   LIG    1       30.168 -22.207   1.882  0.00  0.00    +0.140 C 
ATOM      5  C   LIG    1       31.160 -21.574   0.900  0.00  0.00    +0.260 C 
ATOM      6  O   LIG    1       32.069 -18.702   0.785  0.00  0.00    -0.530 OA
ENDROOT
BRANCH   1  12
ATOM      7  C   LIG    1       29.390 -18.163   2.155  0.00  0.00    +0.020 C 
ATOM      8  C   LIG    1       30.321 -17.746   3.296  0.00  0.00    +0.000 C 
ATOM      9  C   LIG    1       29.784 -18.285   4.638  0.00  0.00    +0.020 C 
ATOM     10  C   LIG    1       30.557 -19.610   4.853  0.00  0.00    +0.020 C 
ATOM     11  C   LIG    1       31.972 -19.269   4.323  0.00  0.00    +0.040 C 
ATOM     12  C   LIG    1       31.712 -18.371   3.095  0.00  0.00    -0.080 C 
ATOM     13  C   LIG    1       32.775 -17.273   3.013  0.00  0.00    +0.050 C 
ENDBRANCH   1  12
BRANCH   4  14
ATOM     14  C   LIG    1       28.754 -21.704   1.743  0.00  0.00    -0.100 A 
ATOM     15  C   LIG    1       27.973 -21.517   2.868  0.00  0.00    +0.020 A 
ATOM     16  C   LIG    1       26.677 -21.056   2.741  0.00  0.00    +0.000 A 
ATOM     17  C   LIG    1       26.161 -20.781   1.489  0.00  0.00    +0.010 A 
ATOM     18  C   LIG    1       26.941 -20.967   0.364  0.00  0.00    +0.010 A 
ATOM     19  C   LIG    1       28.240 -21.424   0.491  0.00  0.00    +0.030 A 
ENDBRANCH   4  14
BRANCH   4  20
ATOM     20  O   LIG    1       30.254 -23.631   1.969  0.00  0.00    -0.530 OA
ATOM     21  H   LIG    1       30.768 -23.948   2.725  0.00  0.00    +0.390 HD
ENDBRANCH   4  20
TORSDOF 3
ENDMDL
MODEL 5
REMARK VINA RESULT:    -7.148      2.105      5.454
REMARK INTER + INTRA:          -5.199
REMARK INTER:                  -7.026
REMARK INTRA:                   1.828
REMARK UNBOUND:                 2.994
REMARK  Name = ZINC000870235067
REMARK                            x       y       z     vdW  Elec       q    Type
REMARK                         _______ _______ _______ _____ _____    ______ ____
ROOT
ATOM      1  C   LIG    1       30.124 -18.665   0.966  0.00  0.00    +0.570 C 
ATOM      2  N   LIG    1       29.906 -19.992   0.876  0.00  0.00    -0.640 N 
ATOM      3  C   LIG    1       30.047 -21.153   1.768  0.00  0.00    +0.300 C 
ATOM      4  C   LIG    1       28.929 -21.836   0.969  0.00  0.00    +0.140 C 
ATOM      5  C   LIG    1       29.413 -20.917  -0.157  0.00  0.00    +0.260 C 
ATOM      6  O   LIG    1       29.992 -17.962  -0.013  0.00  0.00    -0.530 OA
ENDROOT
BRANCH   1  12
ATOM      7  C   LIG    1       32.624 -19.136   1.393  0.00  0.00    +0.020 C 
ATOM      8  C   LIG    1       32.024 -18.331   2.549  0.00  0.00    +0.000 C 
ATOM      9  C   LIG    1       32.715 -16.956   2.648  0.00  0.00    +0.020 C 
ATOM     10  C   LIG    1       31.783 -16.004   1.859  0.00  0.00    +0.020 C 
ATOM     11  C   LIG    1       30.372 -16.524   2.230  0.00  0.00    +0.040 C 
ATOM     12  C   LIG    1       30.534 -18.058   2.282  0.00  0.00    -0.080 C 
ATOM     13  C   LIG    1       29.683 -18.637   3.415  0.00  0.00    +0.050 C 
ENDBRANCH   1  12
BRANCH   4  14
ATOM     14  C   LIG    1       27.539 -21.528   1.464  0.00  0.00    -0.100 A 
ATOM     15  C   LIG    1       26.540 -21.207   0.564  0.00  0.00    +0.020 A 
ATOM     16  C   LIG    1       25.266 -20.925   1.018  0.00  0.00    +0.000 A 
ATOM     17  C   LIG    1       24.989 -20.965   2.371  0.00  0.00    +0.010 A 
ATOM     18  C   LIG    1       25.987 -21.287   3.271  0.00  0.00    +0.010 A 
ATOM     19  C   LIG    1       27.261 -21.573   2.817  0.00  0.00    +0.030 A 
ENDBRANCH   4  14
BRANCH   4  20
ATOM     20  O   LIG    1       29.148 -23.228   0.728  0.00  0.00    -0.530 OA
ATOM     21  H   LIG    1       30.075 -23.496   0.787  0.00  0.00    +0.390 HD
ENDBRANCH   4  20
TORSDOF 3
ENDMDL
MODEL 6
REMARK VINA RESULT:    -7.115      1.770      2.940
REMARK INTER + INTRA:          -5.161
REMARK INTER:                  -7.462
REMARK INTRA:                   2.301
REMARK UNBOUND:                 2.994
REMARK  Name = ZINC000870235067
REMARK                            x       y       z     vdW  Elec       q    Type
REMARK                         _______ _______ _______ _____ _____    ______ ____
ROOT
ATOM      1  C   LIG    1       28.831 -21.591   1.842  0.00  0.00    +0.570 C 
ATOM      2  N   LIG    1       30.163 -21.792   1.896  0.00  0.00    -0.640 N 
ATOM      3  C   LIG    1       31.340 -21.297   1.165  0.00  0.00    +0.300 C 
ATOM      4  C   LIG    1       32.167 -21.555   2.432  0.00  0.00    +0.140 C 
ATOM      5  C   LIG    1       31.080 -22.596   2.718  0.00  0.00    +0.260 C 
ATOM      6  O   LIG    1       28.091 -22.243   2.547  0.00  0.00    -0.530 OA
ENDROOT
BRANCH   1  12
ATOM      7  C   LIG    1       28.668 -19.320   3.052  0.00  0.00    +0.020 C 
ATOM      8  C   LIG    1       28.161 -19.198   1.613  0.00  0.00    +0.000 C 
ATOM      9  C   LIG    1       29.051 -18.218   0.822  0.00  0.00    +0.020 C 
ATOM     10  C   LIG    1       30.072 -19.130   0.098  0.00  0.00    +0.020 C 
ATOM     11  C   LIG    1       29.213 -20.357  -0.297  0.00  0.00    +0.040 C 
ATOM     12  C   LIG    1       28.263 -20.558   0.903  0.00  0.00    -0.080 C 
ATOM     13  C   LIG    1       26.883 -20.999   0.411  0.00  0.00    +0.050 C 
ENDBRANCH   1  12
BRANCH   4  14
ATOM     14  C   LIG    1       32.190 -20.402   3.402  0.00  0.00    -0.100 A 
ATOM     15  C   LIG    1       32.036 -20.635   4.755  0.00  0.00    +0.020 A 
ATOM     16  C   LIG    1       32.057 -19.577   5.645  0.00  0.00    +0.000 A 
ATOM     17  C   LIG    1       32.231 -18.287   5.181  0.00  0.00    +0.010 A 
ATOM     18  C   LIG    1       32.385 -18.055   3.828  0.00  0.00    +0.010 A 
ATOM     19  C   LIG    1       32.369 -19.113   2.938  0.00  0.00    +0.030 A 
ENDBRANCH   4  14
BRANCH   4  20
ATOM     20  O   LIG    1       33.461 -22.109   2.183  0.00  0.00    -0.530 OA
ATOM     21  H   LIG    1       33.807 -22.642   2.912  0.00  0.00    +0.390 HD
ENDBRANCH   4  20
TORSDOF 3
ENDMDL
MODEL 7
REMARK VINA RESULT:    -6.961      2.349      5.189
REMARK INTER + INTRA:          -4.985
REMARK INTER:                  -6.764
REMARK INTRA:                   1.779
REMARK UNBOUND:                 2.994
REMARK  Name = ZINC000870235067
REMARK                            x       y       z     vdW  Elec       q    Type
REMARK                         _______ _______ _______ _____ _____    ______ ____
ROOT
ATOM      1  C   LIG    1       32.615 -19.943   0.888  0.00  0.00    +0.570 C 
ATOM      2  N   LIG    1       31.710 -18.954   0.750  0.00  0.00    -0.640 N 
ATOM      3  C   LIG    1       30.801 -18.491  -0.309  0.00  0.00    +0.300 C 
ATOM      4  C   LIG    1       29.888 -17.936   0.792  0.00  0.00    +0.140 C 
ATOM      5  C   LIG    1       31.191 -17.867   1.594  0.00  0.00    +0.260 C 
ATOM      6  O   LIG    1       33.294 -20.007   1.892  0.00  0.00    -0.530 OA
ENDROOT
BRANCH   1  12
ATOM      7  C   LIG    1       34.203 -19.022  -0.923  0.00  0.00    +0.020 C 
ATOM      8  C   LIG    1       33.730 -20.430  -1.290  0.00  0.00    +0.000 C 
ATOM      9  C   LIG    1       34.933 -21.394  -1.345  0.00  0.00    +0.020 C 
ATOM     10  C   LIG    1       34.952 -22.059   0.054  0.00  0.00    +0.020 C 
ATOM     11  C   LIG    1       33.446 -22.241   0.365  0.00  0.00    +0.040 C 
ATOM     12  C   LIG    1       32.784 -20.968  -0.203  0.00  0.00    -0.080 C 
ATOM     13  C   LIG    1       31.424 -21.313  -0.814  0.00  0.00    +0.050 C 
ENDBRANCH   1  12
BRANCH   4  14
ATOM     14  C   LIG    1       28.886 -18.928   1.324  0.00  0.00    -0.100 A 
ATOM     15  C   LIG    1       28.840 -19.207   2.677  0.00  0.00    +0.020 A 
ATOM     16  C   LIG    1       27.922 -20.117   3.164  0.00  0.00    +0.000 A 
ATOM     17  C   LIG    1       27.048 -20.749   2.299  0.00  0.00    +0.010 A 
ATOM     18  C   LIG    1       27.093 -20.470   0.946  0.00  0.00    +0.010 A 
ATOM     19  C   LIG    1       28.009 -19.556   0.459  0.00  0.00    +0.030 A 
ENDBRANCH   4  14
BRANCH   4  20
ATOM     20  O   LIG    1       29.314 -16.661   0.490  0.00  0.00    -0.530 OA
ATOM     21  H   LIG    1       28.752 -16.307   1.193  0.00  0.00    +0.390 HD
ENDBRANCH   4  20
TORSDOF 3
ENDMDL
MODEL 8
REMARK VINA RESULT:    -6.833      2.066      4.049
REMARK INTER + INTRA:          -4.838
REMARK INTER:                  -6.669
REMARK INTRA:                   1.831
REMARK UNBOUND:                 2.994
REMARK  Name = ZINC000870235067
REMARK                            x       y       z     vdW  Elec       q    Type
REMARK                         _______ _______ _______ _____ _____    ______ ____
ROOT
ATOM      1  C   LIG    1       29.174 -19.056   0.550  0.00  0.00    +0.570 C 
ATOM      2  N   LIG    1       30.381 -18.570   0.900  0.00  0.00    -0.640 N 
ATOM      3  C   LIG    1       31.542 -19.060   1.659  0.00  0.00    +0.300 C 
ATOM      4  C   LIG    1       32.419 -18.121   0.821  0.00  0.00    +0.140 C 
ATOM      5  C   LIG    1       31.122 -17.318   0.683  0.00  0.00    +0.260 C 
ATOM      6  O   LIG    1       28.377 -18.343  -0.023  0.00  0.00    -0.530 OA
ENDROOT
BRANCH   1  12
ATOM      7  C   LIG    1       28.539 -19.244   3.042  0.00  0.00    +0.020 C 
ATOM      8  C   LIG    1       28.433 -20.609   2.357  0.00  0.00    +0.000 C 
ATOM      9  C   LIG    1       26.974 -21.108   2.398  0.00  0.00    +0.020 C 
ATOM     10  C   LIG    1       26.387 -20.679   1.031  0.00  0.00    +0.020 C 
ATOM     11  C   LIG    1       27.573 -20.911   0.062  0.00  0.00    +0.040 C 
ATOM     12  C   LIG    1       28.815 -20.483   0.873  0.00  0.00    -0.080 C 
ATOM     13  C   LIG    1       29.993 -21.406   0.553  0.00  0.00    +0.050 C 
ENDBRANCH   1  12
BRANCH   4  14
ATOM     14  C   LIG    1       32.913 -18.725  -0.470  0.00  0.00    -0.100 A 
ATOM     15  C   LIG    1       33.052 -17.933  -1.594  0.00  0.00    +0.020 A 
ATOM     16  C   LIG    1       33.505 -18.486  -2.777  0.00  0.00    +0.000 A 
ATOM     17  C   LIG    1       33.818 -19.831  -2.836  0.00  0.00    +0.010 A 
ATOM     18  C   LIG    1       33.679 -20.622  -1.711  0.00  0.00    +0.010 A 
ATOM     19  C   LIG    1       33.231 -20.068  -0.527  0.00  0.00    +0.030 A 
ENDBRANCH   4  14
BRANCH   4  20
ATOM     20  O   LIG    1       33.446 -17.460   1.563  0.00  0.00    -0.530 OA
ATOM     21  H   LIG    1       33.398 -16.495   1.526  0.00  0.00    +0.390 HD
ENDBRANCH   4  20
TORSDOF 3
ENDMDL
MODEL 9
REMARK VINA RESULT:    -6.690      1.487      2.461
REMARK INTER + INTRA:          -4.674
REMARK INTER:                  -6.971
REMARK INTRA:                   2.297
REMARK UNBOUND:                 2.994
REMARK  Name = ZINC000870235067
REMARK                            x       y       z     vdW  Elec       q    Type
REMARK                         _______ _______ _______ _____ _____    ______ ____
ROOT
ATOM      1  C   LIG    1       29.064 -21.130   0.314  0.00  0.00    +0.570 C 
ATOM      2  N   LIG    1       30.318 -20.636   0.300  0.00  0.00    -0.640 N 
ATOM      3  C   LIG    1       30.993 -19.442   0.831  0.00  0.00    +0.300 C 
ATOM      4  C   LIG    1       32.290 -20.260   0.875  0.00  0.00    +0.140 C 
ATOM      5  C   LIG    1       31.617 -21.059  -0.245  0.00  0.00    +0.260 C 
ATOM      6  O   LIG    1       28.801 -22.132  -0.318  0.00  0.00    -0.530 OA
ENDROOT
BRANCH   1  12
ATOM      7  C   LIG    1       28.970 -22.129   2.689  0.00  0.00    +0.020 C 
ATOM      8  C   LIG    1       27.924 -21.023   2.531  0.00  0.00    +0.000 C 
ATOM      9  C   LIG    1       28.231 -19.865   3.503  0.00  0.00    +0.020 C 
ATOM     10  C   LIG    1       29.035 -18.854   2.649  0.00  0.00    +0.020 C 
ATOM     11  C   LIG    1       28.335 -18.939   1.270  0.00  0.00    +0.040 C 
ATOM     12  C   LIG    1       27.991 -20.436   1.111  0.00  0.00    -0.080 C 
ATOM     13  C   LIG    1       26.637 -20.591   0.414  0.00  0.00    +0.050 C 
ENDBRANCH   1  12
BRANCH   4  14
ATOM     14  C   LIG    1       32.490 -21.034   2.153  0.00  0.00    -0.100 A 
ATOM     15  C   LIG    1       32.937 -22.340   2.107  0.00  0.00    +0.020 A 
ATOM     16  C   LIG    1       33.120 -23.050   3.279  0.00  0.00    +0.000 A 
ATOM     17  C   LIG    1       32.855 -22.453   4.497  0.00  0.00    +0.010 A 
ATOM     18  C   LIG    1       32.409 -21.146   4.543  0.00  0.00    +0.010 A 
ATOM     19  C   LIG    1       32.230 -20.435   3.372  0.00  0.00    +0.030 A 
ENDBRANCH   4  14
BRANCH   4  20
ATOM     20  O   LIG    1       33.453 -19.536   0.466  0.00  0.00    -0.530 OA
ATOM     21  H   LIG    1       34.159 -19.521   1.127  0.00  0.00    +0.390 HD
ENDBRANCH   4  20
TORSDOF 3
ENDMDL
