MODEL 1
REMARK VINA RESULT:    -7.678      0.000      0.000
REMARK INTER + INTRA:         -10.390
REMARK INTER:                  -9.473
REMARK INTRA:                  -0.917
REMARK UNBOUND:                -0.917
REMARK  Name = ZINC000811426569
REMARK                            x       y       z     vdW  Elec       q    Type
REMARK                         _______ _______ _______ _____ _____    ______ ____
ROOT
ATOM      1  C   LIG    1       29.985 -17.602   0.546  0.00  0.00    +0.510 C 
ATOM      2  O   LIG    1       29.749 -16.424   0.366  0.00  0.00    -0.490 OA
ENDROOT
BRANCH   1   3
ATOM      3  C   LIG    1       29.529 -18.266   1.785  0.00  0.00    -0.130 A 
ATOM      4  C   LIG    1       30.102 -17.919   3.006  0.00  0.00    +0.080 A 
ATOM      5  C   LIG    1       29.672 -18.545   4.159  0.00  0.00    +0.010 A 
ATOM      6  C   LIG    1       28.689 -19.510   4.093  0.00  0.00    +0.050 A 
ATOM      7  C   LIG    1       28.112 -19.867   2.875  0.00  0.00    -0.090 A 
ATOM      8  C   LIG    1       27.062 -20.945   2.910  0.00  0.00    +0.110 C 
ATOM      9  C   LIG    1       26.167 -20.895   1.676  0.00  0.00    +0.030 C 
ATOM     10  C   LIG    1       27.063 -20.772   0.459  0.00  0.00    +0.360 C 
ATOM     11  O   LIG    1       27.085 -21.622  -0.398  0.00  0.00    -0.440 OA
ATOM     12  C   LIG    1       27.925 -19.536   0.372  0.00  0.00    +0.110 C 
ATOM     13  C   LIG    1       28.520 -19.238   1.726  0.00  0.00    -0.010 A 
ENDBRANCH   1   3
BRANCH   1  14
ATOM     14  O   LIG    1       30.662 -18.302  -0.385  0.00  0.00    -0.350 OA
BRANCH  14  15
ATOM     15  C   LIG    1       31.951 -18.843   0.007  0.00  0.00    +0.320 C 
BRANCH  15  20
ATOM     16  C   LIG    1       31.150 -24.005   2.371  0.00  0.00    +0.110 C 
ATOM     17  C   LIG    1       31.381 -22.638   1.781  0.00  0.00    -0.140 A 
ATOM     18  C   LIG    1       32.114 -21.689   2.475  0.00  0.00    +0.060 A 
ATOM     19  C   LIG    1       32.301 -20.444   1.894  0.00  0.00    -0.010 A 
ATOM     20  C   LIG    1       31.754 -20.192   0.650  0.00  0.00    +0.110 A 
ATOM     21  N   LIG    1       31.061 -21.120   0.017  0.00  0.00    -0.470 NA
ATOM     22  C   LIG    1       30.868 -22.316   0.538  0.00  0.00    +0.270 A 
ENDBRANCH  15  20
ENDBRANCH  14  15
ENDBRANCH   1  14
TORSDOF 4
ENDMDL
MODEL 2
REMARK VINA RESULT:    -7.559      2.850      4.629
REMARK INTER + INTRA:         -10.243
REMARK INTER:                  -9.889
REMARK INTRA:                  -0.354
REMARK UNBOUND:                -0.917
REMARK  Name = ZINC000811426569
REMARK                            x       y       z     vdW  Elec       q    Type
REMARK                         _______ _______ _______ _____ _____    ______ ____
ROOT
ATOM      1  C   LIG    1       29.972 -17.421   0.583  0.00  0.00    +0.510 C 
ATOM      2  O   LIG    1       29.366 -16.437   0.208  0.00  0.00    -0.490 OA
ENDROOT
BRANCH   1   3
ATOM      3  C   LIG    1       29.531 -18.140   1.796  0.00  0.00    -0.130 A 
ATOM      4  C   LIG    1       30.077 -17.809   3.034  0.00  0.00    +0.080 A 
ATOM      5  C   LIG    1       29.661 -18.487   4.162  0.00  0.00    +0.010 A 
ATOM      6  C   LIG    1       28.718 -19.488   4.055  0.00  0.00    +0.050 A 
ATOM      7  C   LIG    1       28.169 -19.831   2.820  0.00  0.00    -0.090 A 
ATOM      8  C   LIG    1       27.163 -20.950   2.810  0.00  0.00    +0.110 C 
ATOM      9  C   LIG    1       26.279 -20.898   1.568  0.00  0.00    +0.030 C 
ATOM     10  C   LIG    1       27.182 -20.701   0.365  0.00  0.00    +0.360 C 
ATOM     11  O   LIG    1       27.247 -21.523  -0.517  0.00  0.00    -0.440 OA
ATOM     12  C   LIG    1       27.994 -19.430   0.326  0.00  0.00    +0.110 C 
ATOM     13  C   LIG    1       28.562 -19.150   1.696  0.00  0.00    -0.010 A 
ENDBRANCH   1   3
BRANCH   1  14
ATOM     14  O   LIG    1       31.045 -17.855  -0.106  0.00  0.00    -0.350 OA
BRANCH  14  15
ATOM     15  C   LIG    1       32.344 -17.368   0.322  0.00  0.00    +0.320 C 
BRANCH  15  20
ATOM     16  C   LIG    1       34.337 -13.561  -3.474  0.00  0.00    +0.110 C 
ATOM     17  C   LIG    1       33.818 -14.590  -2.503  0.00  0.00    -0.140 A 
ATOM     18  C   LIG    1       33.753 -15.926  -2.864  0.00  0.00    +0.060 A 
ATOM     19  C   LIG    1       33.269 -16.838  -1.938  0.00  0.00    -0.010 A 
ATOM     20  C   LIG    1       32.871 -16.387  -0.694  0.00  0.00    +0.110 A 
ATOM     21  N   LIG    1       32.947 -15.107  -0.384  0.00  0.00    -0.470 NA
ATOM     22  C   LIG    1       33.407 -14.213  -1.238  0.00  0.00    +0.270 A 
ENDBRANCH  15  20
ENDBRANCH  14  15
ENDBRANCH   1  14
TORSDOF 4
ENDMDL
MODEL 3
REMARK VINA RESULT:    -7.529      2.298      3.125
REMARK INTER + INTRA:         -10.207
REMARK INTER:                  -9.276
REMARK INTRA:                  -0.931
REMARK UNBOUND:                -0.917
REMARK  Name = ZINC000811426569
REMARK                            x       y       z     vdW  Elec       q    Type
REMARK                         _______ _______ _______ _____ _____    ______ ____
ROOT
ATOM      1  C   LIG    1       29.848 -18.754   4.874  0.00  0.00    +0.510 C 
ATOM      2  O   LIG    1       29.363 -18.033   5.723  0.00  0.00    -0.490 OA
ENDROOT
BRANCH   1   3
ATOM      3  C   LIG    1       29.677 -18.426   3.443  0.00  0.00    -0.130 A 
ATOM      4  C   LIG    1       30.356 -17.339   2.896  0.00  0.00    +0.080 A 
ATOM      5  C   LIG    1       30.189 -17.038   1.560  0.00  0.00    +0.010 A 
ATOM      6  C   LIG    1       29.350 -17.807   0.781  0.00  0.00    +0.050 A 
ATOM      7  C   LIG    1       28.663 -18.894   1.318  0.00  0.00    -0.090 A 
ATOM      8  C   LIG    1       27.758 -19.656   0.388  0.00  0.00    +0.110 C 
ATOM      9  C   LIG    1       27.477 -21.062   0.906  0.00  0.00    +0.030 C 
ATOM     10  C   LIG    1       27.108 -20.950   2.372  0.00  0.00    +0.360 C 
ATOM     11  O   LIG    1       26.023 -21.292   2.779  0.00  0.00    -0.440 OA
ATOM     12  C   LIG    1       28.161 -20.392   3.298  0.00  0.00    +0.110 C 
ATOM     13  C   LIG    1       28.836 -19.212   2.642  0.00  0.00    -0.010 A 
ENDBRANCH   1   3
BRANCH   1  14
ATOM     14  O   LIG    1       30.541 -19.851   5.236  0.00  0.00    -0.350 OA
BRANCH  14  15
ATOM     15  C   LIG    1       31.923 -19.932   4.799  0.00  0.00    +0.320 C 
BRANCH  15  20
ATOM     16  C   LIG    1       32.248 -23.511   0.331  0.00  0.00    +0.110 C 
ATOM     17  C   LIG    1       32.178 -22.542   1.484  0.00  0.00    -0.140 A 
ATOM     18  C   LIG    1       32.600 -21.231   1.325  0.00  0.00    +0.060 A 
ATOM     19  C   LIG    1       32.517 -20.375   2.413  0.00  0.00    -0.010 A 
ATOM     20  C   LIG    1       32.019 -20.853   3.610  0.00  0.00    +0.110 A 
ATOM     21  N   LIG    1       31.627 -22.107   3.725  0.00  0.00    -0.470 NA
ATOM     22  C   LIG    1       31.687 -22.948   2.711  0.00  0.00    +0.270 A 
ENDBRANCH  15  20
ENDBRANCH  14  15
ENDBRANCH   1  14
TORSDOF 4
ENDMDL
MODEL 4
REMARK VINA RESULT:    -7.348      1.274      3.544
REMARK INTER + INTRA:          -9.983
REMARK INTER:                  -9.041
REMARK INTRA:                  -0.942
REMARK UNBOUND:                -0.917
REMARK  Name = ZINC000811426569
REMARK                            x       y       z     vdW  Elec       q    Type
REMARK                         _______ _______ _______ _____ _____    ______ ____
ROOT
ATOM      1  C   LIG    1       27.365 -20.840   1.513  0.00  0.00    +0.510 C 
ATOM      2  O   LIG    1       26.153 -20.755   1.532  0.00  0.00    -0.490 OA
ENDROOT
BRANCH   1   3
ATOM      3  C   LIG    1       28.182 -19.910   2.320  0.00  0.00    -0.130 A 
ATOM      4  C   LIG    1       28.261 -20.078   3.700  0.00  0.00    +0.080 A 
ATOM      5  C   LIG    1       29.025 -19.205   4.448  0.00  0.00    +0.010 A 
ATOM      6  C   LIG    1       29.695 -18.172   3.827  0.00  0.00    +0.050 A 
ATOM      7  C   LIG    1       29.620 -17.992   2.446  0.00  0.00    -0.090 A 
ATOM      8  C   LIG    1       30.373 -16.823   1.870  0.00  0.00    +0.110 C 
ATOM      9  C   LIG    1       30.644 -17.011   0.381  0.00  0.00    +0.030 C 
ATOM     10  C   LIG    1       29.351 -17.454  -0.273  0.00  0.00    +0.360 C 
ATOM     11  O   LIG    1       28.812 -16.788  -1.124  0.00  0.00    -0.440 OA
ATOM     12  C   LIG    1       28.770 -18.768   0.191  0.00  0.00    +0.110 C 
ATOM     13  C   LIG    1       28.878 -18.866   1.693  0.00  0.00    -0.010 A 
ENDBRANCH   1   3
BRANCH   1  14
ATOM     14  O   LIG    1       27.963 -21.780   0.756  0.00  0.00    -0.350 OA
BRANCH  14  15
ATOM     15  C   LIG    1       28.966 -22.607   1.402  0.00  0.00    +0.320 C 
BRANCH  15  20
ATOM     16  C   LIG    1       34.119 -20.224   0.603  0.00  0.00    +0.110 C 
ATOM     17  C   LIG    1       32.772 -20.853   0.850  0.00  0.00    -0.140 A 
ATOM     18  C   LIG    1       32.384 -21.197   2.136  0.00  0.00    +0.060 A 
ATOM     19  C   LIG    1       31.136 -21.774   2.317  0.00  0.00    -0.010 A 
ATOM     20  C   LIG    1       30.325 -21.983   1.218  0.00  0.00    +0.110 A 
ATOM     21  N   LIG    1       30.726 -21.642   0.008  0.00  0.00    -0.470 NA
ATOM     22  C   LIG    1       31.905 -21.088  -0.200  0.00  0.00    +0.270 A 
ENDBRANCH  15  20
ENDBRANCH  14  15
ENDBRANCH   1  14
TORSDOF 4
ENDMDL
MODEL 5
REMARK VINA RESULT:    -7.151      2.208      3.820
REMARK INTER + INTRA:          -9.740
REMARK INTER:                  -8.912
REMARK INTRA:                  -0.828
REMARK UNBOUND:                -0.917
REMARK  Name = ZINC000811426569
REMARK                            x       y       z     vdW  Elec       q    Type
REMARK                         _______ _______ _______ _____ _____    ______ ____
ROOT
ATOM      1  C   LIG    1       29.607 -19.058   4.843  0.00  0.00    +0.510 C 
ATOM      2  O   LIG    1       29.356 -18.016   5.415  0.00  0.00    -0.490 OA
ENDROOT
BRANCH   1   3
ATOM      3  C   LIG    1       28.890 -19.409   3.600  0.00  0.00    -0.130 A 
ATOM      4  C   LIG    1       27.950 -20.437   3.610  0.00  0.00    +0.080 A 
ATOM      5  C   LIG    1       27.285 -20.760   2.444  0.00  0.00    +0.010 A 
ATOM      6  C   LIG    1       27.560 -20.071   1.282  0.00  0.00    +0.050 A 
ATOM      7  C   LIG    1       28.502 -19.044   1.259  0.00  0.00    -0.090 A 
ATOM      8  C   LIG    1       28.742 -18.369  -0.064  0.00  0.00    +0.110 C 
ATOM      9  C   LIG    1       29.364 -16.988   0.115  0.00  0.00    +0.030 C 
ATOM     10  C   LIG    1       30.511 -17.121   1.098  0.00  0.00    +0.360 C 
ATOM     11  O   LIG    1       31.648 -16.871   0.780  0.00  0.00    -0.440 OA
ATOM     12  C   LIG    1       30.161 -17.581   2.492  0.00  0.00    +0.110 C 
ATOM     13  C   LIG    1       29.155 -18.703   2.417  0.00  0.00    -0.010 A 
ENDBRANCH   1   3
BRANCH   1  14
ATOM     14  O   LIG    1       30.539 -19.893   5.343  0.00  0.00    -0.350 OA
BRANCH  14  15
ATOM     15  C   LIG    1       31.880 -19.787   4.795  0.00  0.00    +0.320 C 
BRANCH  15  20
ATOM     16  C   LIG    1       32.374 -23.447   0.410  0.00  0.00    +0.110 C 
ATOM     17  C   LIG    1       32.259 -22.457   1.541  0.00  0.00    -0.140 A 
ATOM     18  C   LIG    1       32.660 -21.142   1.365  0.00  0.00    +0.060 A 
ATOM     19  C   LIG    1       32.536 -20.266   2.433  0.00  0.00    -0.010 A 
ATOM     20  C   LIG    1       32.020 -20.730   3.628  0.00  0.00    +0.110 A 
ATOM     21  N   LIG    1       31.649 -21.988   3.760  0.00  0.00    -0.470 NA
ATOM     22  C   LIG    1       31.748 -22.848   2.764  0.00  0.00    +0.270 A 
ENDBRANCH  15  20
ENDBRANCH  14  15
ENDBRANCH   1  14
TORSDOF 4
ENDMDL
MODEL 6
REMARK VINA RESULT:    -7.095      1.827      2.288
REMARK INTER + INTRA:          -9.671
REMARK INTER:                  -9.019
REMARK INTRA:                  -0.653
REMARK UNBOUND:                -0.917
REMARK  Name = ZINC000811426569
REMARK                            x       y       z     vdW  Elec       q    Type
REMARK                         _______ _______ _______ _____ _____    ______ ____
ROOT
ATOM      1  C   LIG    1       30.307 -17.551   1.270  0.00  0.00    +0.510 C 
ATOM      2  O   LIG    1       29.792 -16.552   0.809  0.00  0.00    -0.490 OA
ENDROOT
BRANCH   1   3
ATOM      3  C   LIG    1       29.624 -18.306   2.340  0.00  0.00    -0.130 A 
ATOM      4  C   LIG    1       29.971 -18.088   3.671  0.00  0.00    +0.080 A 
ATOM      5  C   LIG    1       29.330 -18.799   4.665  0.00  0.00    +0.010 A 
ATOM      6  C   LIG    1       28.360 -19.722   4.335  0.00  0.00    +0.050 A 
ATOM      7  C   LIG    1       28.008 -19.951   3.006  0.00  0.00    -0.090 A 
ATOM      8  C   LIG    1       26.952 -20.993   2.752  0.00  0.00    +0.110 C 
ATOM      9  C   LIG    1       26.296 -20.805   1.387  0.00  0.00    +0.030 C 
ATOM     10  C   LIG    1       27.400 -20.604   0.367  0.00  0.00    +0.360 C 
ATOM     11  O   LIG    1       27.563 -21.375  -0.547  0.00  0.00    -0.440 OA
ATOM     12  C   LIG    1       28.283 -19.394   0.551  0.00  0.00    +0.110 C 
ATOM     13  C   LIG    1       28.627 -19.237   2.012  0.00  0.00    -0.010 A 
ENDBRANCH   1   3
BRANCH   1  14
ATOM     14  O   LIG    1       31.501 -17.968   0.806  0.00  0.00    -0.350 OA
BRANCH  14  15
ATOM     15  C   LIG    1       31.704 -17.917  -0.630  0.00  0.00    +0.320 C 
BRANCH  15  20
ATOM     16  C   LIG    1       33.892 -22.882  -2.486  0.00  0.00    +0.110 C 
ATOM     17  C   LIG    1       33.290 -21.597  -1.979  0.00  0.00    -0.140 A 
ATOM     18  C   LIG    1       32.210 -21.623  -1.111  0.00  0.00    +0.060 A 
ATOM     19  C   LIG    1       31.689 -20.416  -0.669  0.00  0.00    -0.010 A 
ATOM     20  C   LIG    1       32.261 -19.236  -1.105  0.00  0.00    +0.110 A 
ATOM     21  N   LIG    1       33.289 -19.249  -1.931  0.00  0.00    -0.470 NA
ATOM     22  C   LIG    1       33.813 -20.378  -2.368  0.00  0.00    +0.270 A 
ENDBRANCH  15  20
ENDBRANCH  14  15
ENDBRANCH   1  14
TORSDOF 4
ENDMDL
MODEL 7
REMARK VINA RESULT:    -7.016      1.761      3.721
REMARK INTER + INTRA:          -9.573
REMARK INTER:                  -9.242
REMARK INTRA:                  -0.332
REMARK UNBOUND:                -0.917
REMARK  Name = ZINC000811426569
REMARK                            x       y       z     vdW  Elec       q    Type
REMARK                         _______ _______ _______ _____ _____    ______ ____
ROOT
ATOM      1  C   LIG    1       27.355 -20.833   1.170  0.00  0.00    +0.510 C 
ATOM      2  O   LIG    1       26.235 -20.512   0.825  0.00  0.00    -0.490 OA
ENDROOT
BRANCH   1   3
ATOM      3  C   LIG    1       28.128 -19.955   2.074  0.00  0.00    -0.130 A 
ATOM      4  C   LIG    1       28.129 -20.203   3.445  0.00  0.00    +0.080 A 
ATOM      5  C   LIG    1       28.852 -19.377   4.282  0.00  0.00    +0.010 A 
ATOM      6  C   LIG    1       29.558 -18.314   3.759  0.00  0.00    +0.050 A 
ATOM      7  C   LIG    1       29.560 -18.055   2.390  0.00  0.00    -0.090 A 
ATOM      8  C   LIG    1       30.346 -16.859   1.924  0.00  0.00    +0.110 C 
ATOM      9  C   LIG    1       30.700 -16.962   0.444  0.00  0.00    +0.030 C 
ATOM     10  C   LIG    1       29.443 -17.361  -0.305  0.00  0.00    +0.360 C 
ATOM     11  O   LIG    1       28.954 -16.645  -1.145  0.00  0.00    -0.440 OA
ATOM     12  C   LIG    1       28.835 -18.696   0.050  0.00  0.00    +0.110 C 
ATOM     13  C   LIG    1       28.859 -18.880   1.547  0.00  0.00    -0.010 A 
ENDBRANCH   1   3
BRANCH   1  14
ATOM     14  O   LIG    1       27.892 -21.987   0.729  0.00  0.00    -0.350 OA
BRANCH  14  15
ATOM     15  C   LIG    1       29.341 -22.062   0.675  0.00  0.00    +0.320 C 
BRANCH  15  20
ATOM     16  C   LIG    1       31.056 -26.757   3.483  0.00  0.00    +0.110 C 
ATOM     17  C   LIG    1       30.630 -25.502   2.766  0.00  0.00    -0.140 A 
ATOM     18  C   LIG    1       31.213 -24.284   3.077  0.00  0.00    +0.060 A 
ATOM     19  C   LIG    1       30.790 -23.155   2.392  0.00  0.00    -0.010 A 
ATOM     20  C   LIG    1       29.808 -23.281   1.427  0.00  0.00    +0.110 A 
ATOM     21  N   LIG    1       29.275 -24.457   1.157  0.00  0.00    -0.470 NA
ATOM     22  C   LIG    1       29.657 -25.552   1.786  0.00  0.00    +0.270 A 
ENDBRANCH  15  20
ENDBRANCH  14  15
ENDBRANCH   1  14
TORSDOF 4
ENDMDL
MODEL 8
REMARK VINA RESULT:    -6.736      2.193      3.249
REMARK INTER + INTRA:          -9.228
REMARK INTER:                  -8.336
REMARK INTRA:                  -0.893
REMARK UNBOUND:                -0.917
REMARK  Name = ZINC000811426569
REMARK                            x       y       z     vdW  Elec       q    Type
REMARK                         _______ _______ _______ _____ _____    ______ ____
ROOT
ATOM      1  C   LIG    1       31.735 -16.388   1.379  0.00  0.00    +0.510 C 
ATOM      2  O   LIG    1       31.628 -15.183   1.487  0.00  0.00    -0.490 OA
ENDROOT
BRANCH   1   3
ATOM      3  C   LIG    1       30.548 -17.209   1.064  0.00  0.00    -0.130 A 
ATOM      4  C   LIG    1       30.017 -17.192  -0.224  0.00  0.00    +0.080 A 
ATOM      5  C   LIG    1       28.906 -17.960  -0.510  0.00  0.00    +0.010 A 
ATOM      6  C   LIG    1       28.328 -18.729   0.479  0.00  0.00    +0.050 A 
ATOM      7  C   LIG    1       28.849 -18.750   1.771  0.00  0.00    -0.090 A 
ATOM      8  C   LIG    1       28.133 -19.607   2.780  0.00  0.00    +0.110 C 
ATOM      9  C   LIG    1       29.035 -19.958   3.959  0.00  0.00    +0.030 C 
ATOM     10  C   LIG    1       29.713 -18.682   4.418  0.00  0.00    +0.360 C 
ATOM     11  O   LIG    1       29.540 -18.239   5.528  0.00  0.00    -0.440 OA
ATOM     12  C   LIG    1       30.615 -17.996   3.422  0.00  0.00    +0.110 C 
ATOM     13  C   LIG    1       29.963 -18.004   2.061  0.00  0.00    -0.010 A 
ENDBRANCH   1   3
BRANCH   1  14
ATOM     14  O   LIG    1       32.936 -16.975   1.546  0.00  0.00    -0.350 OA
BRANCH  14  15
ATOM     15  C   LIG    1       33.396 -17.849   0.482  0.00  0.00    +0.320 C 
BRANCH  15  20
ATOM     16  C   LIG    1       31.580 -23.180   1.562  0.00  0.00    +0.110 C 
ATOM     17  C   LIG    1       32.043 -21.782   1.242  0.00  0.00    -0.140 A 
ATOM     18  C   LIG    1       31.785 -21.224  -0.000  0.00  0.00    +0.060 A 
ATOM     19  C   LIG    1       32.229 -19.935  -0.251  0.00  0.00    -0.010 A 
ATOM     20  C   LIG    1       32.909 -19.252   0.741  0.00  0.00    +0.110 A 
ATOM     21  N   LIG    1       33.136 -19.814   1.913  0.00  0.00    -0.470 NA
ATOM     22  C   LIG    1       32.724 -21.037   2.186  0.00  0.00    +0.270 A 
ENDBRANCH  15  20
ENDBRANCH  14  15
ENDBRANCH   1  14
TORSDOF 4
ENDMDL
MODEL 9
REMARK VINA RESULT:    -6.486      2.897      4.553
REMARK INTER + INTRA:          -8.919
REMARK INTER:                  -8.563
REMARK INTRA:                  -0.356
REMARK UNBOUND:                -0.917
REMARK  Name = ZINC000811426569
REMARK                            x       y       z     vdW  Elec       q    Type
REMARK                         _______ _______ _______ _____ _____    ______ ____
ROOT
ATOM      1  C   LIG    1       30.933 -18.291   0.718  0.00  0.00    +0.510 C 
ATOM      2  O   LIG    1       31.692 -19.079   0.189  0.00  0.00    -0.490 OA
ENDROOT
BRANCH   1   3
ATOM      3  C   LIG    1       30.097 -18.723   1.856  0.00  0.00    -0.130 A 
ATOM      4  C   LIG    1       30.462 -18.374   3.155  0.00  0.00    +0.080 A 
ATOM      5  C   LIG    1       29.676 -18.783   4.213  0.00  0.00    +0.010 A 
ATOM      6  C   LIG    1       28.545 -19.537   3.980  0.00  0.00    +0.050 A 
ATOM      7  C   LIG    1       28.173 -19.895   2.686  0.00  0.00    -0.090 A 
ATOM      8  C   LIG    1       26.932 -20.735   2.541  0.00  0.00    +0.110 C 
ATOM      9  C   LIG    1       26.348 -20.635   1.136  0.00  0.00    +0.030 C 
ATOM     10  C   LIG    1       27.484 -20.815   0.148  0.00  0.00    +0.360 C 
ATOM     11  O   LIG    1       27.502 -21.735  -0.633  0.00  0.00    -0.440 OA
ATOM     12  C   LIG    1       28.589 -19.788   0.190  0.00  0.00    +0.110 C 
ATOM     13  C   LIG    1       28.937 -19.478   1.625  0.00  0.00    -0.010 A 
ENDBRANCH   1   3
BRANCH   1  14
ATOM     14  O   LIG    1       30.855 -17.025   0.265  0.00  0.00    -0.350 OA
BRANCH  14  15
ATOM     15  C   LIG    1       32.012 -16.504  -0.440  0.00  0.00    +0.320 C 
BRANCH  15  20
ATOM     16  C   LIG    1       30.713 -16.065  -6.007  0.00  0.00    +0.110 C 
ATOM     17  C   LIG    1       31.091 -16.188  -4.553  0.00  0.00    -0.140 A 
ATOM     18  C   LIG    1       32.404 -16.440  -4.189  0.00  0.00    +0.060 A 
ATOM     19  C   LIG    1       32.707 -16.545  -2.840  0.00  0.00    -0.010 A 
ATOM     20  C   LIG    1       31.696 -16.394  -1.910  0.00  0.00    +0.110 A 
ATOM     21  N   LIG    1       30.456 -16.154  -2.292  0.00  0.00    -0.470 NA
ATOM     22  C   LIG    1       30.134 -16.044  -3.567  0.00  0.00    +0.270 A 
ENDBRANCH  15  20
ENDBRANCH  14  15
ENDBRANCH   1  14
TORSDOF 4
ENDMDL
