MODEL 1
REMARK VINA RESULT:    -7.474      0.000      0.000
REMARK INTER + INTRA:          -9.277
REMARK INTER:                  -8.784
REMARK INTRA:                  -0.492
REMARK UNBOUND:                -0.492
REMARK  Name = ZINC000924554774
REMARK                            x       y       z     vdW  Elec       q    Type
REMARK                         _______ _______ _______ _____ _____    ______ ____
ROOT
ATOM      1  N   LIG    1       31.318 -17.300   2.597  0.00  0.00    -0.670 NA
ATOM      2  H   LIG    1       31.877 -17.401   3.430  0.00  0.00    +0.360 HD
ENDROOT
BRANCH   1   3
ATOM      3  C   LIG    1       30.022 -17.976   2.749  0.00  0.00    +0.170 C 
ATOM      4  C   LIG    1       30.145 -19.099   3.787  0.00  0.00    +0.040 C 
ATOM      5  C   LIG    1       28.744 -19.620   4.100  0.00  0.00    +0.080 C 
ATOM      6  C   LIG    1       28.007 -19.957   2.829  0.00  0.00    -0.080 A 
ATOM      7  C   LIG    1       26.895 -20.782   2.926  0.00  0.00    +0.000 A 
ATOM      8  C   LIG    1       26.175 -21.122   1.799  0.00  0.00    +0.000 A 
ATOM      9  C   LIG    1       26.563 -20.637   0.564  0.00  0.00    +0.000 A 
ATOM     10  C   LIG    1       27.669 -19.819   0.466  0.00  0.00    +0.000 A 
ATOM     11  C   LIG    1       28.399 -19.479   1.598  0.00  0.00    -0.080 A 
ATOM     12  C   LIG    1       29.603 -18.594   1.416  0.00  0.00    +0.040 C 
ENDBRANCH   1   3
BRANCH   1  13
ATOM     13  C   LIG    1       32.035 -17.798   1.416  0.00  0.00    +0.230 C 
ATOM     14  C   LIG    1       33.366 -18.417   1.851  0.00  0.00    +0.060 C 
BRANCH  13  20
ATOM     15  C   LIG    1       32.724 -18.093  -1.645  0.00  0.00    +0.190 C 
ATOM     16  C   LIG    1       32.609 -16.788  -0.899  0.00  0.00    +0.070 A 
ATOM     17  N   LIG    1       32.774 -15.609  -1.419  0.00  0.00    -0.280 NA
ATOM     18  O   LIG    1       32.580 -14.657  -0.385  0.00  0.00    +0.020 OA
ATOM     19  N   LIG    1       32.284 -15.397   0.789  0.00  0.00    -0.240 NA
ATOM     20  C   LIG    1       32.299 -16.657   0.469  0.00  0.00    +0.080 A 
ENDBRANCH  13  20
ENDBRANCH   1  13
TORSDOF 3
ENDMDL
MODEL 2
REMARK VINA RESULT:    -7.356      3.205      4.663
REMARK INTER + INTRA:          -9.139
REMARK INTER:                  -8.800
REMARK INTRA:                  -0.338
REMARK UNBOUND:                -0.492
REMARK  Name = ZINC000924554774
REMARK                            x       y       z     vdW  Elec       q    Type
REMARK                         _______ _______ _______ _____ _____    ______ ____
ROOT
ATOM      1  N   LIG    1       31.110 -18.781   2.427  0.00  0.00    -0.670 NA
ATOM      2  H   LIG    1       30.923 -18.414   3.347  0.00  0.00    +0.360 HD
ENDROOT
BRANCH   1   3
ATOM      3  C   LIG    1       29.944 -19.508   1.905  0.00  0.00    +0.170 C 
ATOM      4  C   LIG    1       29.267 -18.678   0.808  0.00  0.00    +0.040 C 
ATOM      5  C   LIG    1       28.217 -19.551   0.123  0.00  0.00    +0.080 C 
ATOM      6  C   LIG    1       27.308 -20.186   1.144  0.00  0.00    -0.080 A 
ATOM      7  C   LIG    1       26.092 -20.689   0.703  0.00  0.00    +0.000 A 
ATOM      8  C   LIG    1       25.219 -21.288   1.588  0.00  0.00    +0.000 A 
ATOM      9  C   LIG    1       25.557 -21.388   2.925  0.00  0.00    +0.000 A 
ATOM     10  C   LIG    1       26.764 -20.885   3.365  0.00  0.00    +0.000 A 
ATOM     11  C   LIG    1       27.643 -20.278   2.477  0.00  0.00    -0.080 A 
ATOM     12  C   LIG    1       28.936 -19.739   3.029  0.00  0.00    +0.040 C 
ENDBRANCH   1   3
BRANCH   1  13
ATOM     13  C   LIG    1       32.304 -19.635   2.433  0.00  0.00    +0.230 C 
ATOM     14  C   LIG    1       32.290 -20.541   1.199  0.00  0.00    +0.060 C 
BRANCH  13  20
ATOM     15  C   LIG    1       32.005 -18.550   5.376  0.00  0.00    +0.190 C 
ATOM     16  C   LIG    1       32.178 -19.998   4.994  0.00  0.00    +0.070 A 
ATOM     17  N   LIG    1       32.221 -20.994   5.828  0.00  0.00    -0.280 NA
ATOM     18  O   LIG    1       32.393 -22.178   5.066  0.00  0.00    +0.020 OA
ATOM     19  N   LIG    1       32.443 -21.776   3.706  0.00  0.00    -0.240 NA
ATOM     20  C   LIG    1       32.309 -20.483   3.678  0.00  0.00    +0.080 A 
ENDBRANCH  13  20
ENDBRANCH   1  13
TORSDOF 3
ENDMDL
MODEL 3
REMARK VINA RESULT:    -7.299      1.987      2.198
REMARK INTER + INTRA:          -9.071
REMARK INTER:                  -8.543
REMARK INTRA:                  -0.529
REMARK UNBOUND:                -0.492
REMARK  Name = ZINC000924554774
REMARK                            x       y       z     vdW  Elec       q    Type
REMARK                         _______ _______ _______ _____ _____    ______ ____
ROOT
ATOM      1  N   LIG    1       30.851 -18.907   0.467  0.00  0.00    -0.670 NA
ATOM      2  H   LIG    1       30.772 -19.318  -0.450  0.00  0.00    +0.360 HD
ENDROOT
BRANCH   1   3
ATOM      3  C   LIG    1       29.649 -19.175   1.269  0.00  0.00    +0.170 C 
ATOM      4  C   LIG    1       30.010 -20.082   2.452  0.00  0.00    +0.040 C 
ATOM      5  C   LIG    1       28.808 -20.147   3.392  0.00  0.00    +0.080 C 
ATOM      6  C   LIG    1       27.558 -20.502   2.631  0.00  0.00    -0.080 A 
ATOM      7  C   LIG    1       26.471 -20.971   3.355  0.00  0.00    +0.000 A 
ATOM      8  C   LIG    1       25.295 -21.307   2.715  0.00  0.00    +0.000 A 
ATOM      9  C   LIG    1       25.197 -21.175   1.343  0.00  0.00    +0.000 A 
ATOM     10  C   LIG    1       26.278 -20.712   0.621  0.00  0.00    +0.000 A 
ATOM     11  C   LIG    1       27.464 -20.377   1.262  0.00  0.00    -0.080 A 
ATOM     12  C   LIG    1       28.608 -19.892   0.411  0.00  0.00    +0.040 C 
ENDBRANCH   1   3
BRANCH   1  13
ATOM     13  C   LIG    1       31.111 -17.464   0.377  0.00  0.00    +0.230 C 
ATOM     14  C   LIG    1       30.421 -16.747   1.540  0.00  0.00    +0.060 C 
BRANCH  13  20
ATOM     15  C   LIG    1       32.843 -16.806  -2.172  0.00  0.00    +0.190 C 
ATOM     16  C   LIG    1       31.348 -16.640  -2.067  0.00  0.00    +0.070 A 
ATOM     17  N   LIG    1       30.572 -16.208  -3.015  0.00  0.00    -0.280 NA
ATOM     18  O   LIG    1       29.247 -16.202  -2.510  0.00  0.00    +0.020 OA
ATOM     19  N   LIG    1       29.325 -16.676  -1.175  0.00  0.00    -0.240 NA
ATOM     20  C   LIG    1       30.574 -16.937  -0.927  0.00  0.00    +0.080 A 
ENDBRANCH  13  20
ENDBRANCH   1  13
TORSDOF 3
ENDMDL
MODEL 4
REMARK VINA RESULT:    -7.217      1.869      2.291
REMARK INTER + INTRA:          -8.975
REMARK INTER:                  -8.229
REMARK INTRA:                  -0.746
REMARK UNBOUND:                -0.492
REMARK  Name = ZINC000924554774
REMARK                            x       y       z     vdW  Elec       q    Type
REMARK                         _______ _______ _______ _____ _____    ______ ____
ROOT
ATOM      1  N   LIG    1       31.177 -17.186   2.416  0.00  0.00    -0.670 NA
ATOM      2  H   LIG    1       31.155 -16.272   2.843  0.00  0.00    +0.360 HD
ENDROOT
BRANCH   1   3
ATOM      3  C   LIG    1       29.910 -17.898   2.634  0.00  0.00    +0.170 C 
ATOM      4  C   LIG    1       30.100 -18.971   3.712  0.00  0.00    +0.040 C 
ATOM      5  C   LIG    1       28.728 -19.526   4.088  0.00  0.00    +0.080 C 
ATOM      6  C   LIG    1       27.968 -19.939   2.854  0.00  0.00    -0.080 A 
ATOM      7  C   LIG    1       26.888 -20.796   3.017  0.00  0.00    +0.000 A 
ATOM      8  C   LIG    1       26.149 -21.206   1.926  0.00  0.00    +0.000 A 
ATOM      9  C   LIG    1       26.484 -20.760   0.661  0.00  0.00    +0.000 A 
ATOM     10  C   LIG    1       27.559 -19.911   0.498  0.00  0.00    +0.000 A 
ATOM     11  C   LIG    1       28.308 -19.500   1.594  0.00  0.00    -0.080 A 
ATOM     12  C   LIG    1       29.476 -18.584   1.340  0.00  0.00    +0.040 C 
ENDBRANCH   1   3
BRANCH   1  13
ATOM     13  C   LIG    1       32.314 -17.972   2.911  0.00  0.00    +0.230 C 
ATOM     14  C   LIG    1       33.185 -17.096   3.814  0.00  0.00    +0.060 C 
BRANCH  13  20
ATOM     15  C   LIG    1       32.635 -20.984   2.042  0.00  0.00    +0.190 C 
ATOM     16  C   LIG    1       33.279 -19.806   1.357  0.00  0.00    +0.070 A 
ATOM     17  N   LIG    1       34.050 -19.875   0.313  0.00  0.00    -0.280 NA
ATOM     18  O   LIG    1       34.442 -18.551  -0.013  0.00  0.00    +0.020 OA
ATOM     19  N   LIG    1       33.824 -17.704   0.943  0.00  0.00    -0.240 NA
ATOM     20  C   LIG    1       33.133 -18.459   1.744  0.00  0.00    +0.080 A 
ENDBRANCH  13  20
ENDBRANCH   1  13
TORSDOF 3
ENDMDL
MODEL 5
REMARK VINA RESULT:    -7.062      1.081      1.995
REMARK INTER + INTRA:          -8.793
REMARK INTER:                  -8.558
REMARK INTRA:                  -0.236
REMARK UNBOUND:                -0.492
REMARK  Name = ZINC000924554774
REMARK                            x       y       z     vdW  Elec       q    Type
REMARK                         _______ _______ _______ _____ _____    ______ ____
ROOT
ATOM      1  N   LIG    1       31.254 -18.921   2.416  0.00  0.00    -0.670 NA
ATOM      2  H   LIG    1       31.712 -19.465   3.131  0.00  0.00    +0.360 HD
ENDROOT
BRANCH   1   3
ATOM      3  C   LIG    1       30.058 -19.612   1.915  0.00  0.00    +0.170 C 
ATOM      4  C   LIG    1       29.396 -18.769   0.817  0.00  0.00    +0.040 C 
ATOM      5  C   LIG    1       28.308 -19.611   0.154  0.00  0.00    +0.080 C 
ATOM      6  C   LIG    1       27.391 -20.204   1.192  0.00  0.00    -0.080 A 
ATOM      7  C   LIG    1       26.153 -20.669   0.770  0.00  0.00    +0.000 A 
ATOM      8  C   LIG    1       25.270 -21.228   1.671  0.00  0.00    +0.000 A 
ATOM      9  C   LIG    1       25.620 -21.326   3.005  0.00  0.00    +0.000 A 
ATOM     10  C   LIG    1       26.849 -20.862   3.426  0.00  0.00    +0.000 A 
ATOM     11  C   LIG    1       27.738 -20.295   2.521  0.00  0.00    -0.080 A 
ATOM     12  C   LIG    1       29.055 -19.796   3.053  0.00  0.00    +0.040 C 
ENDBRANCH   1   3
BRANCH   1  13
ATOM     13  C   LIG    1       32.178 -18.607   1.319  0.00  0.00    +0.230 C 
ATOM     14  C   LIG    1       33.593 -19.049   1.702  0.00  0.00    +0.060 C 
BRANCH  13  20
ATOM     15  C   LIG    1       33.002 -17.221  -1.388  0.00  0.00    +0.190 C 
ATOM     16  C   LIG    1       32.540 -16.503  -0.147  0.00  0.00    +0.070 A 
ATOM     17  N   LIG    1       32.413 -15.214  -0.028  0.00  0.00    -0.280 NA
ATOM     18  O   LIG    1       31.956 -14.952   1.288  0.00  0.00    +0.020 OA
ATOM     19  N   LIG    1       31.825 -16.213   1.925  0.00  0.00    -0.240 NA
ATOM     20  C   LIG    1       32.169 -17.123   1.063  0.00  0.00    +0.080 A 
ENDBRANCH  13  20
ENDBRANCH   1  13
TORSDOF 3
ENDMDL
MODEL 6
REMARK VINA RESULT:    -7.037      1.819      2.651
REMARK INTER + INTRA:          -8.763
REMARK INTER:                  -8.209
REMARK INTRA:                  -0.554
REMARK UNBOUND:                -0.492
REMARK  Name = ZINC000924554774
REMARK                            x       y       z     vdW  Elec       q    Type
REMARK                         _______ _______ _______ _____ _____    ______ ____
ROOT
ATOM      1  N   LIG    1       31.111 -19.617  -0.090  0.00  0.00    -0.670 NA
ATOM      2  H   LIG    1       30.905 -20.061  -0.972  0.00  0.00    +0.360 HD
ENDROOT
BRANCH   1   3
ATOM      3  C   LIG    1       29.951 -19.673   0.810  0.00  0.00    +0.170 C 
ATOM      4  C   LIG    1       30.295 -20.518   2.043  0.00  0.00    +0.040 C 
ATOM      5  C   LIG    1       29.169 -20.361   3.063  0.00  0.00    +0.080 C 
ATOM      6  C   LIG    1       27.831 -20.622   2.420  0.00  0.00    -0.080 A 
ATOM      7  C   LIG    1       26.756 -20.896   3.254  0.00  0.00    +0.000 A 
ATOM      8  C   LIG    1       25.504 -21.137   2.726  0.00  0.00    +0.000 A 
ATOM      9  C   LIG    1       25.318 -21.107   1.356  0.00  0.00    +0.000 A 
ATOM     10  C   LIG    1       26.386 -20.837   0.526  0.00  0.00    +0.000 A 
ATOM     11  C   LIG    1       27.649 -20.598   1.055  0.00  0.00    -0.080 A 
ATOM     12  C   LIG    1       28.772 -20.325   0.090  0.00  0.00    +0.040 C 
ENDBRANCH   1   3
BRANCH   1  13
ATOM     13  C   LIG    1       31.557 -18.232  -0.289  0.00  0.00    +0.230 C 
ATOM     14  C   LIG    1       32.433 -18.152  -1.541  0.00  0.00    +0.060 C 
BRANCH  13  20
ATOM     15  C   LIG    1       30.536 -16.249   1.937  0.00  0.00    +0.190 C 
ATOM     16  C   LIG    1       31.897 -16.894   1.903  0.00  0.00    +0.070 A 
ATOM     17  N   LIG    1       32.831 -16.724   2.791  0.00  0.00    -0.280 NA
ATOM     18  O   LIG    1       33.946 -17.504   2.390  0.00  0.00    +0.020 OA
ATOM     19  N   LIG    1       33.570 -18.148   1.183  0.00  0.00    -0.240 NA
ATOM     20  C   LIG    1       32.353 -17.783   0.909  0.00  0.00    +0.080 A 
ENDBRANCH  13  20
ENDBRANCH   1  13
TORSDOF 3
ENDMDL
MODEL 7
REMARK VINA RESULT:    -6.538      2.037      3.443
REMARK INTER + INTRA:          -8.177
REMARK INTER:                  -7.516
REMARK INTRA:                  -0.662
REMARK UNBOUND:                -0.492
REMARK  Name = ZINC000924554774
REMARK                            x       y       z     vdW  Elec       q    Type
REMARK                         _______ _______ _______ _____ _____    ______ ____
ROOT
ATOM      1  N   LIG    1       31.104 -16.555  -0.703  0.00  0.00    -0.670 NA
ATOM      2  H   LIG    1       30.656 -15.666  -0.542  0.00  0.00    +0.360 HD
ENDROOT
BRANCH   1   3
ATOM      3  C   LIG    1       30.462 -17.617   0.084  0.00  0.00    +0.170 C 
ATOM      4  C   LIG    1       28.990 -17.745  -0.326  0.00  0.00    +0.040 C 
ATOM      5  C   LIG    1       28.416 -19.001   0.326  0.00  0.00    +0.080 C 
ATOM      6  C   LIG    1       28.705 -19.010   1.805  0.00  0.00    -0.080 A 
ATOM      7  C   LIG    1       27.951 -19.856   2.606  0.00  0.00    +0.000 A 
ATOM      8  C   LIG    1       28.172 -19.914   3.967  0.00  0.00    +0.000 A 
ATOM      9  C   LIG    1       29.152 -19.123   4.538  0.00  0.00    +0.000 A 
ATOM     10  C   LIG    1       29.900 -18.280   3.744  0.00  0.00    +0.000 A 
ATOM     11  C   LIG    1       29.677 -18.217   2.374  0.00  0.00    -0.080 A 
ATOM     12  C   LIG    1       30.521 -17.264   1.569  0.00  0.00    +0.040 C 
ENDBRANCH   1   3
BRANCH   1  13
ATOM     13  C   LIG    1       32.542 -16.480  -0.412  0.00  0.00    +0.230 C 
ATOM     14  C   LIG    1       33.138 -15.248  -1.095  0.00  0.00    +0.060 C 
BRANCH  13  20
ATOM     15  C   LIG    1       33.939 -18.669   1.374  0.00  0.00    +0.190 C 
ATOM     16  C   LIG    1       33.851 -18.697  -0.131  0.00  0.00    +0.070 A 
ATOM     17  N   LIG    1       34.336 -19.631  -0.893  0.00  0.00    -0.280 NA
ATOM     18  O   LIG    1       34.041 -19.279  -2.235  0.00  0.00    +0.020 OA
ATOM     19  N   LIG    1       33.335 -18.050  -2.181  0.00  0.00    -0.240 NA
ATOM     20  C   LIG    1       33.224 -17.719  -0.929  0.00  0.00    +0.080 A 
ENDBRANCH  13  20
ENDBRANCH   1  13
TORSDOF 3
ENDMDL
MODEL 8
REMARK VINA RESULT:    -6.428     12.369     13.362
REMARK INTER + INTRA:          -8.048
REMARK INTER:                  -7.478
REMARK INTRA:                  -0.570
REMARK UNBOUND:                -0.492
REMARK  Name = ZINC000924554774
REMARK                            x       y       z     vdW  Elec       q    Type
REMARK                         _______ _______ _______ _____ _____    ______ ____
ROOT
ATOM      1  N   LIG    1       26.990  -7.309   1.389  0.00  0.00    -0.670 NA
ATOM      2  H   LIG    1       26.628  -8.112   1.880  0.00  0.00    +0.360 HD
ENDROOT
BRANCH   1   3
ATOM      3  C   LIG    1       25.977  -6.248   1.297  0.00  0.00    +0.170 C 
ATOM      4  C   LIG    1       24.686  -6.707   1.986  0.00  0.00    +0.040 C 
ATOM      5  C   LIG    1       23.743  -5.511   2.087  0.00  0.00    +0.080 C 
ATOM      6  C   LIG    1       23.588  -4.843   0.745  0.00  0.00    -0.080 A 
ATOM      7  C   LIG    1       22.503  -3.997   0.565  0.00  0.00    +0.000 A 
ATOM      8  C   LIG    1       22.310  -3.351  -0.639  0.00  0.00    +0.000 A 
ATOM      9  C   LIG    1       23.204  -3.547  -1.675  0.00  0.00    +0.000 A 
ATOM     10  C   LIG    1       24.282  -4.389  -1.498  0.00  0.00    +0.000 A 
ATOM     11  C   LIG    1       24.477  -5.044  -0.288  0.00  0.00    -0.080 A 
ATOM     12  C   LIG    1       25.666  -5.959  -0.170  0.00  0.00    +0.040 C 
ENDBRANCH   1   3
BRANCH   1  13
ATOM     13  C   LIG    1       27.483  -7.683   0.057  0.00  0.00    +0.230 C 
ATOM     14  C   LIG    1       27.156  -9.153  -0.214  0.00  0.00    +0.060 C 
BRANCH  13  20
ATOM     15  C   LIG    1       28.938  -5.248  -1.315  0.00  0.00    +0.190 C 
ATOM     16  C   LIG    1       29.625  -6.394  -0.618  0.00  0.00    +0.070 A 
ATOM     17  N   LIG    1       30.911  -6.529  -0.484  0.00  0.00    -0.280 NA
ATOM     18  O   LIG    1       31.140  -7.734   0.228  0.00  0.00    +0.020 OA
ATOM     19  N   LIG    1       29.862  -8.287   0.499  0.00  0.00    -0.240 NA
ATOM     20  C   LIG    1       28.974  -7.481  -0.002  0.00  0.00    +0.080 A 
ENDBRANCH  13  20
ENDBRANCH   1  13
TORSDOF 3
ENDMDL
MODEL 9
REMARK VINA RESULT:    -6.126     11.883     12.905
REMARK INTER + INTRA:          -7.692
REMARK INTER:                  -7.144
REMARK INTRA:                  -0.549
REMARK UNBOUND:                -0.492
REMARK  Name = ZINC000924554774
REMARK                            x       y       z     vdW  Elec       q    Type
REMARK                         _______ _______ _______ _____ _____    ______ ____
ROOT
ATOM      1  N   LIG    1       27.678  -6.710  -1.032  0.00  0.00    -0.670 NA
ATOM      2  H   LIG    1       28.490  -6.119  -1.128  0.00  0.00    +0.360 HD
ENDROOT
BRANCH   1   3
ATOM      3  C   LIG    1       26.634  -6.045  -0.241  0.00  0.00    +0.170 C 
ATOM      4  C   LIG    1       25.920  -7.074   0.643  0.00  0.00    +0.040 C 
ATOM      5  C   LIG    1       25.016  -6.326   1.619  0.00  0.00    +0.080 C 
ATOM      6  C   LIG    1       24.137  -5.348   0.884  0.00  0.00    -0.080 A 
ATOM      7  C   LIG    1       23.012  -4.868   1.541  0.00  0.00    +0.000 A 
ATOM      8  C   LIG    1       22.172  -3.965   0.923  0.00  0.00    +0.000 A 
ATOM      9  C   LIG    1       22.451  -3.533  -0.360  0.00  0.00    +0.000 A 
ATOM     10  C   LIG    1       23.567  -4.011  -1.015  0.00  0.00    +0.000 A 
ATOM     11  C   LIG    1       24.413  -4.923  -0.397  0.00  0.00    -0.080 A 
ATOM     12  C   LIG    1       25.604  -5.414  -1.176  0.00  0.00    +0.040 C 
ENDBRANCH   1   3
BRANCH   1  13
ATOM     13  C   LIG    1       28.037  -8.007  -0.444  0.00  0.00    +0.230 C 
ATOM     14  C   LIG    1       29.344  -7.868   0.341  0.00  0.00    +0.060 C 
BRANCH  13  20
ATOM     15  C   LIG    1       25.704  -9.523  -1.922  0.00  0.00    +0.190 C 
ATOM     16  C   LIG    1       27.174  -9.704  -2.200  0.00  0.00    +0.070 A 
ATOM     17  N   LIG    1       27.677 -10.506  -3.091  0.00  0.00    -0.280 NA
ATOM     18  O   LIG    1       29.088 -10.375  -3.032  0.00  0.00    +0.020 OA
ATOM     19  N   LIG    1       29.359  -9.418  -2.021  0.00  0.00    -0.240 NA
ATOM     20  C   LIG    1       28.217  -9.024  -1.541  0.00  0.00    +0.080 A 
ENDBRANCH  13  20
ENDBRANCH   1  13
TORSDOF 3
ENDMDL
