MODEL 1
REMARK VINA RESULT:    -7.437      0.000      0.000
REMARK INTER + INTRA:          -9.629
REMARK INTER:                  -9.176
REMARK INTRA:                  -0.453
REMARK UNBOUND:                -0.453
REMARK  Name = ZINC001168733702
REMARK                            x       y       z     vdW  Elec       q    Type
REMARK                         _______ _______ _______ _____ _____    ______ ____
ROOT
ATOM      1  C   LIG    1       32.552 -17.226   1.927  0.00  0.00    +0.280 C 
ENDROOT
BRANCH   1   2
ATOM      2  N   LIG    1       32.962 -17.611   0.574  0.00  0.00    -0.720 N 
ATOM      3  H   LIG    1       33.347 -18.487   0.415  0.00  0.00    +0.410 HD
BRANCH   2   8
ATOM      4  C   LIG    1       31.188 -14.988  -4.279  0.00  0.00    +0.460 A 
ATOM      5  N   LIG    1       30.904 -16.094  -3.625  0.00  0.00    -0.330 NA
ATOM      6  N   LIG    1       31.723 -16.123  -2.493  0.00  0.00    -0.230 N 
ATOM      7  C   LIG    1       31.885 -16.991  -1.458  0.00  0.00    +0.150 A 
ATOM      8  C   LIG    1       32.797 -16.716  -0.486  0.00  0.00    +0.350 A 
ATOM      9  N   LIG    1       33.536 -15.605  -0.530  0.00  0.00    -0.460 NA
ATOM     10  C   LIG    1       33.409 -14.742  -1.511  0.00  0.00    +0.420 A 
ATOM     11  C   LIG    1       32.480 -14.984  -2.539  0.00  0.00    +0.180 A 
ATOM     12  N   LIG    1       32.130 -14.320  -3.634  0.00  0.00    -0.520 NA
ENDBRANCH   2   8
ENDBRANCH   1   2
BRANCH   1  13
ATOM     13  C   LIG    1       31.152 -16.612   1.881  0.00  0.00    +0.070 C 
BRANCH  13  14
ATOM     14  C   LIG    1       30.125 -17.679   2.166  0.00  0.00    -0.080 A 
ATOM     15  C   LIG    1       29.387 -18.190   1.142  0.00  0.00    +0.030 A 
ATOM     16  C   LIG    1       28.430 -19.184   1.405  0.00  0.00    -0.050 A 
ATOM     17  C   LIG    1       27.650 -19.736   0.375  0.00  0.00    +0.020 A 
ATOM     18  C   LIG    1       26.732 -20.699   0.666  0.00  0.00    +0.000 A 
ATOM     19  C   LIG    1       26.554 -21.147   1.973  0.00  0.00    +0.000 A 
ATOM     20  C   LIG    1       27.292 -20.635   2.996  0.00  0.00    +0.020 A 
ATOM     21  C   LIG    1       28.249 -19.642   2.734  0.00  0.00    -0.050 A 
ATOM     22  C   LIG    1       29.030 -19.090   3.765  0.00  0.00    +0.030 A 
ATOM     23  C   LIG    1       29.951 -18.132   3.472  0.00  0.00    +0.010 A 
ENDBRANCH  13  14
ENDBRANCH   1  13
TORSDOF 4
ENDMDL
MODEL 2
REMARK VINA RESULT:    -7.224      3.039      4.827
REMARK INTER + INTRA:          -9.367
REMARK INTER:                  -8.645
REMARK INTRA:                  -0.722
REMARK UNBOUND:                -0.453
REMARK  Name = ZINC001168733702
REMARK                            x       y       z     vdW  Elec       q    Type
REMARK                         _______ _______ _______ _____ _____    ______ ____
ROOT
ATOM      1  C   LIG    1       32.307 -17.133   1.113  0.00  0.00    +0.280 C 
ENDROOT
BRANCH   1   2
ATOM      2  N   LIG    1       33.136 -17.947   2.004  0.00  0.00    -0.720 N 
ATOM      3  H   LIG    1       33.473 -17.570   2.832  0.00  0.00    +0.410 HD
BRANCH   2   8
ATOM      4  C   LIG    1       33.238 -23.731   1.651  0.00  0.00    +0.460 A 
ATOM      5  N   LIG    1       32.562 -22.820   2.319  0.00  0.00    -0.330 NA
ATOM      6  N   LIG    1       33.052 -21.573   1.920  0.00  0.00    -0.230 N 
ATOM      7  C   LIG    1       32.757 -20.286   2.251  0.00  0.00    +0.150 A 
ATOM      8  C   LIG    1       33.440 -19.267   1.662  0.00  0.00    +0.350 A 
ATOM      9  N   LIG    1       34.398 -19.510   0.764  0.00  0.00    -0.460 NA
ATOM     10  C   LIG    1       34.712 -20.737   0.418  0.00  0.00    +0.420 A 
ATOM     11  C   LIG    1       34.033 -21.822   1.000  0.00  0.00    +0.180 A 
ATOM     12  N   LIG    1       34.120 -23.139   0.861  0.00  0.00    -0.520 NA
ENDBRANCH   2   8
ENDBRANCH   1   2
BRANCH   1  13
ATOM     13  C   LIG    1       31.135 -16.544   1.903  0.00  0.00    +0.070 C 
BRANCH  13  14
ATOM     14  C   LIG    1       30.128 -17.628   2.189  0.00  0.00    -0.080 A 
ATOM     15  C   LIG    1       29.392 -18.147   1.168  0.00  0.00    +0.030 A 
ATOM     16  C   LIG    1       28.453 -19.157   1.431  0.00  0.00    -0.050 A 
ATOM     17  C   LIG    1       27.676 -19.718   0.403  0.00  0.00    +0.020 A 
ATOM     18  C   LIG    1       26.775 -20.696   0.696  0.00  0.00    +0.000 A 
ATOM     19  C   LIG    1       26.610 -21.152   2.001  0.00  0.00    +0.000 A 
ATOM     20  C   LIG    1       27.346 -20.632   3.023  0.00  0.00    +0.020 A 
ATOM     21  C   LIG    1       28.285 -19.622   2.759  0.00  0.00    -0.050 A 
ATOM     22  C   LIG    1       29.062 -19.062   3.788  0.00  0.00    +0.030 A 
ATOM     23  C   LIG    1       29.968 -18.089   3.495  0.00  0.00    +0.010 A 
ENDBRANCH  13  14
ENDBRANCH   1  13
TORSDOF 4
ENDMDL
MODEL 3
REMARK VINA RESULT:    -7.107      3.505      5.967
REMARK INTER + INTRA:          -9.222
REMARK INTER:                  -8.528
REMARK INTRA:                  -0.694
REMARK UNBOUND:                -0.453
REMARK  Name = ZINC001168733702
REMARK                            x       y       z     vdW  Elec       q    Type
REMARK                         _______ _______ _______ _____ _____    ______ ____
ROOT
ATOM      1  C   LIG    1       32.253 -18.080   3.051  0.00  0.00    +0.280 C 
ENDROOT
BRANCH   1   2
ATOM      2  N   LIG    1       32.812 -18.904   1.977  0.00  0.00    -0.720 N 
ATOM      3  H   LIG    1       33.125 -18.487   1.158  0.00  0.00    +0.410 HD
BRANCH   2   8
ATOM      4  C   LIG    1       32.347 -24.327   3.965  0.00  0.00    +0.460 A 
ATOM      5  N   LIG    1       31.977 -23.126   4.354  0.00  0.00    -0.330 NA
ATOM      6  N   LIG    1       32.421 -22.226   3.381  0.00  0.00    -0.230 N 
ATOM      7  C   LIG    1       32.341 -20.876   3.227  0.00  0.00    +0.150 A 
ATOM      8  C   LIG    1       32.894 -20.290   2.131  0.00  0.00    +0.350 A 
ATOM      9  N   LIG    1       33.516 -21.020   1.201  0.00  0.00    -0.460 NA
ATOM     10  C   LIG    1       33.614 -22.324   1.312  0.00  0.00    +0.420 A 
ATOM     11  C   LIG    1       33.058 -22.974   2.428  0.00  0.00    +0.180 A 
ATOM     12  N   LIG    1       32.994 -24.242   2.814  0.00  0.00    -0.520 NA
ENDBRANCH   2   8
ENDBRANCH   1   2
BRANCH   1  13
ATOM     13  C   LIG    1       31.174 -17.158   2.478  0.00  0.00    +0.070 C 
BRANCH  13  14
ATOM     14  C   LIG    1       30.022 -17.987   1.971  0.00  0.00    -0.080 A 
ATOM     15  C   LIG    1       29.351 -18.801   2.833  0.00  0.00    +0.030 A 
ATOM     16  C   LIG    1       28.277 -19.575   2.363  0.00  0.00    -0.050 A 
ATOM     17  C   LIG    1       27.560 -20.425   3.222  0.00  0.00    +0.020 A 
ATOM     18  C   LIG    1       26.524 -21.160   2.732  0.00  0.00    +0.000 A 
ATOM     19  C   LIG    1       26.161 -21.082   1.390  0.00  0.00    +0.000 A 
ATOM     20  C   LIG    1       26.833 -20.269   0.529  0.00  0.00    +0.020 A 
ATOM     21  C   LIG    1       27.906 -19.495   0.998  0.00  0.00    -0.050 A 
ATOM     22  C   LIG    1       28.623 -18.644   0.138  0.00  0.00    +0.030 A 
ATOM     23  C   LIG    1       29.655 -17.905   0.629  0.00  0.00    +0.010 A 
ENDBRANCH  13  14
ENDBRANCH   1  13
TORSDOF 4
ENDMDL
MODEL 4
REMARK VINA RESULT:    -7.100      2.673      4.067
REMARK INTER + INTRA:          -9.213
REMARK INTER:                  -8.497
REMARK INTRA:                  -0.716
REMARK UNBOUND:                -0.453
REMARK  Name = ZINC001168733702
REMARK                            x       y       z     vdW  Elec       q    Type
REMARK                         _______ _______ _______ _____ _____    ______ ____
ROOT
ATOM      1  C   LIG    1       31.832 -16.791   0.564  0.00  0.00    +0.280 C 
ENDROOT
BRANCH   1   2
ATOM      2  N   LIG    1       33.044 -17.575   0.812  0.00  0.00    -0.720 N 
ATOM      3  H   LIG    1       33.856 -17.132   1.105  0.00  0.00    +0.410 HD
BRANCH   2   8
ATOM      4  C   LIG    1       32.830 -22.889  -1.489  0.00  0.00    +0.460 A 
ATOM      5  N   LIG    1       32.783 -21.650  -1.927  0.00  0.00    -0.330 NA
ATOM      6  N   LIG    1       32.892 -20.816  -0.810  0.00  0.00    -0.230 N 
ATOM      7  C   LIG    1       32.907 -19.467  -0.628  0.00  0.00    +0.150 A 
ATOM      8  C   LIG    1       33.030 -18.959   0.628  0.00  0.00    +0.350 A 
ATOM      9  N   LIG    1       33.136 -19.765   1.689  0.00  0.00    -0.460 NA
ATOM     10  C   LIG    1       33.126 -21.071   1.555  0.00  0.00    +0.420 A 
ATOM     11  C   LIG    1       33.000 -21.642   0.275  0.00  0.00    +0.180 A 
ATOM     12  N   LIG    1       32.959 -22.890  -0.172  0.00  0.00    -0.520 NA
ENDBRANCH   2   8
ENDBRANCH   1   2
BRANCH   1  13
ATOM     13  C   LIG    1       31.129 -16.503   1.893  0.00  0.00    +0.070 C 
BRANCH  13  14
ATOM     14  C   LIG    1       30.127 -17.592   2.178  0.00  0.00    -0.080 A 
ATOM     15  C   LIG    1       29.398 -18.117   1.155  0.00  0.00    +0.030 A 
ATOM     16  C   LIG    1       28.463 -19.133   1.417  0.00  0.00    -0.050 A 
ATOM     17  C   LIG    1       27.693 -19.699   0.388  0.00  0.00    +0.020 A 
ATOM     18  C   LIG    1       26.797 -20.682   0.679  0.00  0.00    +0.000 A 
ATOM     19  C   LIG    1       26.631 -21.136   1.985  0.00  0.00    +0.000 A 
ATOM     20  C   LIG    1       27.360 -20.611   3.008  0.00  0.00    +0.020 A 
ATOM     21  C   LIG    1       28.294 -19.596   2.745  0.00  0.00    -0.050 A 
ATOM     22  C   LIG    1       29.065 -19.030   3.776  0.00  0.00    +0.030 A 
ATOM     23  C   LIG    1       29.966 -18.052   3.483  0.00  0.00    +0.010 A 
ENDBRANCH  13  14
ENDBRANCH   1  13
TORSDOF 4
ENDMDL
MODEL 5
REMARK VINA RESULT:    -7.046      1.695      2.624
REMARK INTER + INTRA:          -9.147
REMARK INTER:                  -8.595
REMARK INTRA:                  -0.552
REMARK UNBOUND:                -0.453
REMARK  Name = ZINC001168733702
REMARK                            x       y       z     vdW  Elec       q    Type
REMARK                         _______ _______ _______ _____ _____    ______ ____
ROOT
ATOM      1  C   LIG    1       32.070 -19.444   2.981  0.00  0.00    +0.280 C 
ENDROOT
BRANCH   1   2
ATOM      2  N   LIG    1       33.078 -18.468   2.560  0.00  0.00    -0.720 N 
ATOM      3  H   LIG    1       33.775 -18.194   3.177  0.00  0.00    +0.410 HD
BRANCH   2   8
ATOM      4  C   LIG    1       33.386 -17.731  -3.179  0.00  0.00    +0.460 A 
ATOM      5  N   LIG    1       33.599 -18.708  -2.323  0.00  0.00    -0.330 NA
ATOM      6  N   LIG    1       33.330 -18.200  -1.049  0.00  0.00    -0.230 N 
ATOM      7  C   LIG    1       33.368 -18.718   0.209  0.00  0.00    +0.150 A 
ATOM      8  C   LIG    1       33.036 -17.934   1.270  0.00  0.00    +0.350 A 
ATOM      9  N   LIG    1       32.673 -16.660   1.097  0.00  0.00    -0.460 NA
ATOM     10  C   LIG    1       32.623 -16.123  -0.100  0.00  0.00    +0.420 A 
ATOM     11  C   LIG    1       32.957 -16.895  -1.226  0.00  0.00    +0.180 A 
ATOM     12  N   LIG    1       33.003 -16.645  -2.529  0.00  0.00    -0.520 NA
ENDBRANCH   2   8
ENDBRANCH   1   2
BRANCH   1  13
ATOM     13  C   LIG    1       30.816 -18.708   3.458  0.00  0.00    +0.070 C 
BRANCH  13  14
ATOM     14  C   LIG    1       29.618 -19.205   2.689  0.00  0.00    -0.080 A 
ATOM     15  C   LIG    1       28.605 -19.826   3.353  0.00  0.00    +0.030 A 
ATOM     16  C   LIG    1       27.488 -20.290   2.638  0.00  0.00    -0.050 A 
ATOM     17  C   LIG    1       26.422 -20.935   3.288  0.00  0.00    +0.020 A 
ATOM     18  C   LIG    1       25.355 -21.371   2.564  0.00  0.00    +0.000 A 
ATOM     19  C   LIG    1       25.302 -21.187   1.184  0.00  0.00    +0.000 A 
ATOM     20  C   LIG    1       26.316 -20.566   0.521  0.00  0.00    +0.020 A 
ATOM     21  C   LIG    1       27.432 -20.102   1.235  0.00  0.00    -0.050 A 
ATOM     22  C   LIG    1       28.498 -19.456   0.584  0.00  0.00    +0.030 A 
ATOM     23  C   LIG    1       29.562 -19.015   1.309  0.00  0.00    +0.010 A 
ENDBRANCH  13  14
ENDBRANCH   1  13
TORSDOF 4
ENDMDL
MODEL 6
REMARK VINA RESULT:    -7.012      1.283      1.828
REMARK INTER + INTRA:          -9.105
REMARK INTER:                  -8.644
REMARK INTRA:                  -0.461
REMARK UNBOUND:                -0.453
REMARK  Name = ZINC001168733702
REMARK                            x       y       z     vdW  Elec       q    Type
REMARK                         _______ _______ _______ _____ _____    ______ ____
ROOT
ATOM      1  C   LIG    1       32.016 -18.206   0.708  0.00  0.00    +0.280 C 
ENDROOT
BRANCH   1   2
ATOM      2  N   LIG    1       32.207 -16.970  -0.054  0.00  0.00    -0.720 N 
ATOM      3  H   LIG    1       32.875 -16.325   0.228  0.00  0.00    +0.410 HD
BRANCH   2   8
ATOM      4  C   LIG    1       30.416 -15.768  -5.433  0.00  0.00    +0.460 A 
ATOM      5  N   LIG    1       31.568 -15.901  -4.811  0.00  0.00    -0.330 NA
ATOM      6  N   LIG    1       31.280 -16.204  -3.476  0.00  0.00    -0.230 N 
ATOM      7  C   LIG    1       32.036 -16.448  -2.372  0.00  0.00    +0.150 A 
ATOM      8  C   LIG    1       31.427 -16.720  -1.186  0.00  0.00    +0.350 A 
ATOM      9  N   LIG    1       30.096 -16.750  -1.087  0.00  0.00    -0.460 NA
ATOM     10  C   LIG    1       29.330 -16.520  -2.130  0.00  0.00    +0.420 A 
ATOM     11  C   LIG    1       29.915 -16.235  -3.376  0.00  0.00    +0.180 A 
ATOM     12  N   LIG    1       29.424 -15.966  -4.580  0.00  0.00    -0.520 NA
ENDBRANCH   2   8
ENDBRANCH   1   2
BRANCH   1  13
ATOM     13  C   LIG    1       31.440 -17.872   2.086  0.00  0.00    +0.070 C 
BRANCH  13  14
ATOM     14  C   LIG    1       30.181 -18.670   2.311  0.00  0.00    -0.080 A 
ATOM     15  C   LIG    1       29.417 -19.032   1.244  0.00  0.00    +0.030 A 
ATOM     16  C   LIG    1       28.243 -19.776   1.450  0.00  0.00    -0.050 A 
ATOM     17  C   LIG    1       27.429 -20.168   0.375  0.00  0.00    +0.020 A 
ATOM     18  C   LIG    1       26.299 -20.889   0.612  0.00  0.00    +0.000 A 
ATOM     19  C   LIG    1       25.935 -21.245   1.909  0.00  0.00    +0.000 A 
ATOM     20  C   LIG    1       26.699 -20.882   2.976  0.00  0.00    +0.020 A 
ATOM     21  C   LIG    1       27.873 -20.139   2.769  0.00  0.00    -0.050 A 
ATOM     22  C   LIG    1       28.687 -19.746   3.846  0.00  0.00    +0.030 A 
ATOM     23  C   LIG    1       29.820 -19.031   3.608  0.00  0.00    +0.010 A 
ENDBRANCH  13  14
ENDBRANCH   1  13
TORSDOF 4
ENDMDL
MODEL 7
REMARK VINA RESULT:    -6.876      1.234      1.815
REMARK INTER + INTRA:          -8.937
REMARK INTER:                  -8.543
REMARK INTRA:                  -0.394
REMARK UNBOUND:                -0.453
REMARK  Name = ZINC001168733702
REMARK                            x       y       z     vdW  Elec       q    Type
REMARK                         _______ _______ _______ _____ _____    ______ ____
ROOT
ATOM      1  C   LIG    1       31.996 -17.257  -0.486  0.00  0.00    +0.280 C 
ENDROOT
BRANCH   1   2
ATOM      2  N   LIG    1       32.680 -16.255  -1.306  0.00  0.00    -0.720 N 
ATOM      3  H   LIG    1       33.593 -16.000  -1.098  0.00  0.00    +0.410 HD
BRANCH   2   8
ATOM      4  C   LIG    1       29.355 -15.306  -5.956  0.00  0.00    +0.460 A 
ATOM      5  N   LIG    1       29.648 -16.324  -5.176  0.00  0.00    -0.330 NA
ATOM      6  N   LIG    1       30.544 -15.855  -4.210  0.00  0.00    -0.230 N 
ATOM      7  C   LIG    1       31.188 -16.424  -3.155  0.00  0.00    +0.150 A 
ATOM      8  C   LIG    1       32.019 -15.668  -2.387  0.00  0.00    +0.350 A 
ATOM      9  N   LIG    1       32.212 -14.373  -2.653  0.00  0.00    -0.460 NA
ATOM     10  C   LIG    1       31.609 -13.787  -3.661  0.00  0.00    +0.420 A 
ATOM     11  C   LIG    1       30.741 -14.529  -4.483  0.00  0.00    +0.180 A 
ATOM     12  N   LIG    1       30.006 -14.230  -5.546  0.00  0.00    -0.520 NA
ENDBRANCH   2   8
ENDBRANCH   1   2
BRANCH   1  13
ATOM     13  C   LIG    1       31.250 -16.560   0.654  0.00  0.00    +0.070 C 
BRANCH  13  14
ATOM     14  C   LIG    1       30.306 -17.537   1.309  0.00  0.00    -0.080 A 
ATOM     15  C   LIG    1       29.413 -18.222   0.543  0.00  0.00    +0.030 A 
ATOM     16  C   LIG    1       28.533 -19.133   1.151  0.00  0.00    -0.050 A 
ATOM     17  C   LIG    1       27.597 -19.858   0.394  0.00  0.00    +0.020 A 
ATOM     18  C   LIG    1       26.760 -20.734   1.016  0.00  0.00    +0.000 A 
ATOM     19  C   LIG    1       26.816 -20.922   2.395  0.00  0.00    +0.000 A 
ATOM     20  C   LIG    1       27.710 -20.236   3.160  0.00  0.00    +0.020 A 
ATOM     21  C   LIG    1       28.590 -19.326   2.553  0.00  0.00    -0.050 A 
ATOM     22  C   LIG    1       29.526 -18.600   3.311  0.00  0.00    +0.030 A 
ATOM     23  C   LIG    1       30.367 -17.730   2.688  0.00  0.00    +0.010 A 
ENDBRANCH  13  14
ENDBRANCH   1  13
TORSDOF 4
ENDMDL
MODEL 8
REMARK VINA RESULT:    -6.504      2.443      5.308
REMARK INTER + INTRA:          -8.478
REMARK INTER:                  -8.723
REMARK INTRA:                   0.244
REMARK UNBOUND:                -0.453
REMARK  Name = ZINC001168733702
REMARK                            x       y       z     vdW  Elec       q    Type
REMARK                         _______ _______ _______ _____ _____    ______ ____
ROOT
ATOM      1  C   LIG    1       32.088 -17.134  -0.168  0.00  0.00    +0.280 C 
ENDROOT
BRANCH   1   2
ATOM      2  N   LIG    1       33.174 -17.698   0.638  0.00  0.00    -0.720 N 
ATOM      3  H   LIG    1       34.093 -17.440   0.462  0.00  0.00    +0.410 HD
BRANCH   2   8
ATOM      4  C   LIG    1       32.016 -20.139   5.764  0.00  0.00    +0.460 A 
ATOM      5  N   LIG    1       32.251 -18.928   5.308  0.00  0.00    -0.330 NA
ATOM      6  N   LIG    1       32.460 -19.042   3.930  0.00  0.00    -0.230 N 
ATOM      7  C   LIG    1       32.739 -18.159   2.934  0.00  0.00    +0.150 A 
ATOM      8  C   LIG    1       32.886 -18.608   1.658  0.00  0.00    +0.350 A 
ATOM      9  N   LIG    1       32.761 -19.905   1.367  0.00  0.00    -0.460 NA
ATOM     10  C   LIG    1       32.492 -20.790   2.299  0.00  0.00    +0.420 A 
ATOM     11  C   LIG    1       32.332 -20.372   3.633  0.00  0.00    +0.180 A 
ATOM     12  N   LIG    1       32.063 -21.007   4.767  0.00  0.00    -0.520 NA
ENDBRANCH   2   8
ENDBRANCH   1   2
BRANCH   1  13
ATOM     13  C   LIG    1       30.992 -16.601   0.757  0.00  0.00    +0.070 C 
BRANCH  13  14
ATOM     14  C   LIG    1       29.890 -17.623   0.871  0.00  0.00    -0.080 A 
ATOM     15  C   LIG    1       29.656 -18.225   2.070  0.00  0.00    +0.030 A 
ATOM     16  C   LIG    1       28.630 -19.178   2.180  0.00  0.00    -0.050 A 
ATOM     17  C   LIG    1       28.358 -19.821   3.399  0.00  0.00    +0.020 A 
ATOM     18  C   LIG    1       27.355 -20.739   3.469  0.00  0.00    +0.000 A 
ATOM     19  C   LIG    1       26.591 -21.053   2.347  0.00  0.00    +0.000 A 
ATOM     20  C   LIG    1       26.826 -20.450   1.149  0.00  0.00    +0.020 A 
ATOM     21  C   LIG    1       27.852 -19.497   1.039  0.00  0.00    -0.050 A 
ATOM     22  C   LIG    1       28.123 -18.855  -0.181  0.00  0.00    +0.030 A 
ATOM     23  C   LIG    1       29.122 -17.932  -0.249  0.00  0.00    +0.010 A 
ENDBRANCH  13  14
ENDBRANCH   1  13
TORSDOF 4
ENDMDL
MODEL 9
REMARK VINA RESULT:    -6.298      4.965      6.995
REMARK INTER + INTRA:          -8.224
REMARK INTER:                  -7.776
REMARK INTRA:                  -0.448
REMARK UNBOUND:                -0.453
REMARK  Name = ZINC001168733702
REMARK                            x       y       z     vdW  Elec       q    Type
REMARK                         _______ _______ _______ _____ _____    ______ ____
ROOT
ATOM      1  C   LIG    1       32.240 -20.356   2.770  0.00  0.00    +0.280 C 
ENDROOT
BRANCH   1   2
ATOM      2  N   LIG    1       32.250 -21.477   3.713  0.00  0.00    -0.720 N 
ATOM      3  H   LIG    1       32.510 -21.331   4.636  0.00  0.00    +0.410 HD
BRANCH   2   8
ATOM      4  C   LIG    1       29.569 -25.950   1.186  0.00  0.00    +0.460 A 
ATOM      5  N   LIG    1       29.417 -24.644   1.239  0.00  0.00    -0.330 NA
ATOM      6  N   LIG    1       30.440 -24.146   2.051  0.00  0.00    -0.230 N 
ATOM      7  C   LIG    1       30.801 -22.902   2.471  0.00  0.00    +0.150 A 
ATOM      8  C   LIG    1       31.883 -22.754   3.282  0.00  0.00    +0.350 A 
ATOM      9  N   LIG    1       32.599 -23.811   3.674  0.00  0.00    -0.460 NA
ATOM     10  C   LIG    1       32.284 -25.027   3.291  0.00  0.00    +0.420 A 
ATOM     11  C   LIG    1       31.173 -25.229   2.452  0.00  0.00    +0.180 A 
ATOM     12  N   LIG    1       30.618 -26.305   1.910  0.00  0.00    -0.520 NA
ENDBRANCH   2   8
ENDBRANCH   1   2
BRANCH   1  13
ATOM     13  C   LIG    1       31.165 -19.349   3.186  0.00  0.00    +0.070 C 
BRANCH  13  14
ATOM     14  C   LIG    1       29.867 -19.686   2.495  0.00  0.00    -0.080 A 
ATOM     15  C   LIG    1       28.824 -20.167   3.226  0.00  0.00    +0.030 A 
ATOM     16  C   LIG    1       27.614 -20.481   2.586  0.00  0.00    -0.050 A 
ATOM     17  C   LIG    1       26.515 -20.980   3.306  0.00  0.00    +0.020 A 
ATOM     18  C   LIG    1       25.357 -21.273   2.652  0.00  0.00    +0.000 A 
ATOM     19  C   LIG    1       25.244 -21.087   1.276  0.00  0.00    +0.000 A 
ATOM     20  C   LIG    1       26.288 -20.605   0.546  0.00  0.00    +0.020 A 
ATOM     21  C   LIG    1       27.498 -20.291   1.186  0.00  0.00    -0.050 A 
ATOM     22  C   LIG    1       28.596 -19.792   0.465  0.00  0.00    +0.030 A 
ATOM     23  C   LIG    1       29.752 -19.493   1.120  0.00  0.00    +0.010 A 
ENDBRANCH  13  14
ENDBRANCH   1  13
TORSDOF 4
ENDMDL
